Auto-Transcript Start Time:  08:14:30, 17 Apr 2025 GMT Daylight Time 
Current Directory: "C:\Users\cvest\Claudio\Oxford\3rd Year\B3\CubeSat_project\Claudio\Aerothermal\CFD\2d Sim\No Refinement\With new many axes\Isothermal Rees Conditions\No refinement"

              Welcome to ANSYS Fluent 2024 R2

              Copyright 1987-2024 ANSYS, Inc. All Rights Reserved.
              Unauthorized use, distribution or duplication is prohibited.
              This product is subject to U.S. laws governing export and re-export.
              For full Legal Notice, see documentation.

Build Time: May 13 2024 11:28:30 EST  Build Id: 10192  
 
Connected License Server List:	<Shared_Web_License_Server>

     --------------------------------------------------------------
     This is a student version of ANSYS FLUENT. Usage of this product
     license is limited to the terms and conditions specified in your ANSYS
     license form, additional terms section.
     --------------------------------------------------------------
Host spawning Node 0 on machine "ClouDsBlade14" (win64).

-----------------------------------------------------------------------------------------
ID    Hostname       Core  O.S.         PID    Vendor                                   
-----------------------------------------------------------------------------------------
n3    ClouDsBlade14  4/16  Windows-x64  32460  AMD Ryzen 9 5900HX with Radeon Graphics  
n2    ClouDsBlade14  3/16  Windows-x64  20488  AMD Ryzen 9 5900HX with Radeon Graphics  
n1    ClouDsBlade14  2/16  Windows-x64  360    AMD Ryzen 9 5900HX with Radeon Graphics  
n0*   ClouDsBlade14  1/16  Windows-x64  36384  AMD Ryzen 9 5900HX with Radeon Graphics  
host  ClouDsBlade14        Windows-x64  32532  AMD Ryzen 9 5900HX with Radeon Graphics  

MPI Option Selected: intel
Selected system interconnect: default
-----------------------------------------------------------------------------------------

Cleanup script file is C:\\Users\\cvest\\Claudio\\Oxford\\3rd Year\\B3\\CubeSat_project\\Claudio\\Aerothermal\\CFD\\2d Sim\\No Refinement\\With new many axes\\Isothermal Rees Conditions\\No refinement\\cleanup-fluent-ClouDsBlade14-32532.bat

Posting ANSYS Product Improvement Program startup data
Done.

> (cx-gui-do cx-activate-item "MenuBar*ReadSubMenu*Case...")
(cx-gui-do cx-activate-item "MenuBar*ReadSubMenu*Case & Data...")
(cx-gui-do cx-set-file-dialog-entries "Select File" '( "FFF.cas.h5") "CFF Case Files (*.cas.h5 )")
Fast-loading "C:\PROGRA~1\ANSYSI~1\ANSYSS~1\v242\fluent\fluent24.2.0\\addons\afd\lib\hdfio.bin"
Done.
Multicore SMT processors detected. Processor affinity set!

Reading from ClouDsBlade14:"C:/Users/cvest/Claudio/Oxford/3rd Year/B3/CubeSat_project/Claudio/Aerothermal/CFD/2d Sim/No Refinement/With new many axes/Isothermal Rees Conditions/No refinement/FFF.cas.h5" in NODE0 mode ...
  Reading mesh ...
       47868 cells,     1 cell zone  ...
          47868 mixed cells,  zone id: 2
       80352 faces,     3 face zones ...
          79252 2D interior faces,  zone id: 1
            300 2D pressure-far-field faces,  zone id: 5
            800 2D wall faces,  zone id: 6
       32484 nodes,     1 node zone  ...
  Done.


Building...
     mesh
	distributing mesh
		parts....,
		faces....,
		nodes....,
		cells....,
        bandwidth reduction using Reverse Cuthill-McKee: 11271/147 = 76.6735
     materials,
     interface,
     domains,
	mixture
     zones,
	interior-surface_body
	walls
	pressure_far_field
	surface_body
     parallel,
Done.

Reading from ClouDsBlade14:"C:/Users/cvest/Claudio/Oxford/3rd Year/B3/CubeSat_project/Claudio/Aerothermal/CFD/2d Sim/No Refinement/With new many axes/Isothermal Rees Conditions/No refinement/FFF.dat.h5" in NODE0 mode ...


  Reading results.
Parallel variables...
Done.
(cx-gui-do cx-set-list-tree-selections "NavigationPane*Frame2*Table1*List_Tree2" (list "Results|Graphics|Contours|mach"))
(cx-gui-do cx-set-list-tree-selections "NavigationPane*Frame2*Table1*List_Tree2" (list "Results|Graphics|Contours|mach"))
(cx-gui-do cx-activate-item "NavigationPane*Frame2*Table1*List_Tree2")
(cx-gui-do cx-set-list-tree-selections "NavigationPane*Frame2*Table1*List_Tree2" (list "Results|Graphics|Contours|mach"))
(cx-gui-do cx-activate-item "Contours*PanelButtons*PushButton1(OK)")
(cx-gui-do cx-activate-item "Contours*PanelButtons*PushButton2(Cancel)")
(cx-gui-do cx-activate-item "Ribbon*Frame1*Frame6(Results)*Table1*Table3(Surface)*PushButton1(Create)")
(cx-gui-do cx-activate-item "MenuBar*PopupMenuCreate*Zone...")
(cx-gui-do cx-set-list-selections "Zone Surface*List1(Zone)" '( 2))
(cx-gui-do cx-activate-item "Zone Surface*List1(Zone)")
(cx-gui-do cx-activate-item "Zone Surface*PanelButtons*PushButton1(OK)")
(cx-gui-do cx-activate-item "Zone Surface*PanelButtons*PushButton2(Cancel)")
(cx-gui-do cx-set-list-tree-selections "NavigationPane*Frame2*Table1*List_Tree2" (list "Results|Graphics|Contours|mach"))
(cx-gui-do cx-set-list-tree-selections "NavigationPane*Frame2*Table1*List_Tree2" (list "Results|Graphics|Contours|mach"))
(cx-gui-do cx-activate-item "NavigationPane*Frame2*Table1*List_Tree2")
(cx-gui-do cx-set-list-tree-selections "NavigationPane*Frame2*Table1*List_Tree2" (list "Results|Graphics|Contours|mach"))
(cx-gui-do cx-set-list-selections "Contours*Table1*Frame3*Frame2*List2(Surfaces)" '( 4 6))
(cx-gui-do cx-activate-item "Contours*Table1*Frame3*Frame2*List2(Surfaces)")
(cx-gui-do cx-set-list-selections "Contours*Table1*Frame3*Frame2*List2(Surfaces)" '( 6))
(cx-gui-do cx-activate-item "Contours*Table1*Frame3*Frame2*List2(Surfaces)")
(cx-gui-do cx-set-toggle-button2 "Contours*Table1*Frame1*ToggleBox1(Options)*CheckButton9(Draw Mesh)" #t)
(cx-gui-do cx-activate-item "Contours*Table1*Frame1*ToggleBox1(Options)*CheckButton9(Draw Mesh)")
(cx-gui-do cx-set-toggle-button2 "Mesh Display*Table1*Frame1*Frame1*ToggleBox1(Options)*CheckButton2(Edges)" #t)
(cx-gui-do cx-activate-item "Mesh Display*Table1*Frame1*Frame1*ToggleBox1(Options)*CheckButton2(Edges)")
(cx-gui-do cx-set-toggle-button2 "Mesh Display*Table1*Frame1*Frame1*ToggleBox1(Options)*CheckButton3(Faces)" #t)
(cx-gui-do cx-activate-item "Mesh Display*Table1*Frame1*Frame1*ToggleBox1(Options)*CheckButton3(Faces)")
(cx-gui-do cx-set-list-selections "Mesh Display*Table1*Frame3*Frame1*List1(Surfaces)" '( 4 8))
(cx-gui-do cx-activate-item "Mesh Display*Table1*Frame3*Frame1*List1(Surfaces)")
(cx-gui-do cx-set-list-selections "Mesh Display*Table1*Frame3*Frame1*List1(Surfaces)" '( 4 8))
(cx-gui-do cx-activate-item "Mesh Display*Table1*Frame3*Frame1*List1(Surfaces)")
(cx-gui-do cx-set-list-selections "Mesh Display*Table1*Frame3*Frame1*List1(Surfaces)" '( 4 8))
(cx-gui-do cx-activate-item "Mesh Display*Table1*Frame3*Frame1*List1(Surfaces)")
(cx-gui-do cx-set-scale "Mesh Display*Table1*Frame1*Frame3(Transparency)*Scale1" 100)
(cx-gui-do cx-activate-item "Mesh Display*Table1*Frame1*Frame3(Transparency)*Scale1")
(cx-gui-do cx-activate-item "Mesh Display*PanelButtons*PushButton1(OK)")
(cx-gui-do cx-activate-item "Mesh Display*PanelButtons*PushButton2(Cancel)")
(cx-gui-do cx-activate-item "Contours*PanelButtons*PushButton1(OK)")
(cx-gui-do cx-activate-item "Contours*Table1*Frame1*PushButton5(Colormap Options)")
(cx-gui-do cx-set-toggle-button2 "Colormap*Table1*Frame5(Colormap)*Frame7(Colormap Background)*CheckButton1(Background Transparent)" #f)
(cx-gui-do cx-activate-item "Colormap*Table1*Frame5(Colormap)*Frame7(Colormap Background)*CheckButton1(Background Transparent)")
(cx-gui-do cx-activate-item "Colormap*PushButton2")
(cx-gui-do cx-set-real-entry-list "Colormap*Table1*Frame4(Labels)*Frame4(Font)*RealEntry4(Font Size)" '( 0.04))
(cx-gui-do cx-set-list-selections "Colormap*Table1*Frame4(Labels)*Frame4(Font)*DropDownList2(Font Behavior)" '( 0))
(cx-gui-do cx-activate-item "Colormap*Table1*Frame4(Labels)*Frame4(Font)*DropDownList2(Font Behavior)")
(cx-gui-do cx-set-list-selections "Colormap*Table1*Frame4(Labels)*Frame4(Font)*DropDownList1(Font Name)" '( 132))
(cx-gui-do cx-activate-item "Colormap*Table1*Frame4(Labels)*Frame4(Font)*DropDownList1(Font Name)")
(cx-gui-do cx-set-list-selections "Colormap*Table1*Frame4(Labels)*Frame3(Number Format)*DropDownList1(Type)" '( 1))
(cx-gui-do cx-activate-item "Colormap*Table1*Frame4(Labels)*Frame3(Number Format)*DropDownList1(Type)")
(cx-gui-do cx-set-list-selections "Colormap*Table1*DropDownList2(Titles)" '( 1))
(cx-gui-do cx-activate-item "Colormap*Table1*DropDownList2(Titles)")
(cx-gui-do cx-set-real-entry-list "Colormap*Table1*Frame5(Colormap)*Frame6(Colormap Dimensions)*RealEntry1(Length)" '( 0.75))
(cx-gui-do cx-set-real-entry-list "Colormap*Table1*Frame5(Colormap)*Frame6(Colormap Dimensions)*RealEntry2(Width Ratio)" '( 5.5))
(cx-gui-do cx-activate-item "Colormap*PanelButtons*PushButton1(OK)")
(cx-gui-do cx-activate-item "Colormap*PanelButtons*PushButton2(Cancel)")
(cx-gui-do cx-activate-item "Contours*PanelButtons*PushButton1(OK)")
(cx-gui-do cx-activate-item "Contours*PanelButtons*PushButton2(Cancel)")
(cx-gui-do cx-set-list-tree-selections "NavigationPane*Frame2*Table1*List_Tree2" (list "Results|Graphics|Contours|temperature"))
(cx-gui-do cx-set-list-tree-selections "NavigationPane*Frame2*Table1*List_Tree2" (list "Results|Graphics|Contours|temperature"))
(cx-gui-do cx-activate-item "NavigationPane*Frame2*Table1*List_Tree2")
(cx-gui-do cx-set-list-tree-selections "NavigationPane*Frame2*Table1*List_Tree2" (list "Results|Graphics|Contours|temperature"))
(cx-gui-do cx-set-list-selections "Contours*Table1*Frame3*Frame2*List2(Surfaces)" '( 0 1 2 3 4 7 9 10 11 12 13 14 15 16 17 18))
(cx-gui-do cx-activate-item "Contours*Table1*Frame3*Frame2*List2(Surfaces)")
(cx-gui-do cx-set-list-selections "Contours*Table1*Frame3*Frame2*List2(Surfaces)" '( 0 1 2 3 4 7 9 10 11 12 13 14 15 16 17 18))
(cx-gui-do cx-activate-item "Contours*Table1*Frame3*Frame2*List2(Surfaces)")
(cx-gui-do cx-set-list-selections "Contours*Table1*Frame3*Frame2*List2(Surfaces)" '( 0 1 2 3 4 7 9 10 11 12 13 14 15 16 17 18))
(cx-gui-do cx-activate-item "Contours*Table1*Frame3*Frame2*List2(Surfaces)")
(cx-gui-do cx-set-list-selections "Contours*Table1*Frame3*Frame2*List2(Surfaces)" '( 0 1 2 3 7 9 10 11 12 13 14 15 16 17 18))
(cx-gui-do cx-activate-item "Contours*Table1*Frame3*Frame2*List2(Surfaces)")
(cx-gui-do cx-set-list-selections "Contours*Table1*Frame3*Frame2*List2(Surfaces)" '( 1 2 3 7 9 10 11 12 13 14 15 16 17 18))
(cx-gui-do cx-activate-item "Contours*Table1*Frame3*Frame2*List2(Surfaces)")
(cx-gui-do cx-set-list-selections "Contours*Table1*Frame3*Frame2*List2(Surfaces)" '( 1 2 3 7 9 10 11 12 13 14 15 16 17 18))
(cx-gui-do cx-activate-item "Contours*Table1*Frame3*Frame2*List2(Surfaces)")
(cx-gui-do cx-set-list-selections "Contours*Table1*Frame3*Frame2*List2(Surfaces)" '( 1 2 3 7 9 10 11 12 13 14 15 16 17 18))
(cx-gui-do cx-activate-item "Contours*Table1*Frame3*Frame2*List2(Surfaces)")
(cx-gui-do cx-set-list-selections "Contours*Table1*Frame3*Frame2*List2(Surfaces)" '( 1 2 3 6 7 9 10 11 12 13 14 15 16 17 18))
(cx-gui-do cx-activate-item "Contours*Table1*Frame3*Frame2*List2(Surfaces)")
(cx-gui-do cx-set-list-selections "Contours*Table1*Frame3*Frame2*List2(Surfaces)" '( 1 3 6 7 9 10 11 12 13 14 15 16 17 18))
(cx-gui-do cx-activate-item "Contours*Table1*Frame3*Frame2*List2(Surfaces)")
(cx-gui-do cx-set-list-selections "Contours*Table1*Frame3*Frame2*List2(Surfaces)" '( 0 1 2 3 6 7 9 10 11 12 13 14 15 16 17 18))
(cx-gui-do cx-activate-item "Contours*Table1*Frame3*Frame2*List2(Surfaces)")
(cx-gui-do cx-set-list-selections "Contours*Table1*Frame3*Frame2*List2(Surfaces)" '( 6))
(cx-gui-do cx-activate-item "Contours*Table1*Frame3*Frame2*List2(Surfaces)")
(cx-gui-do cx-set-toggle-button2 "Contours*Table1*Frame1*ToggleBox1(Options)*CheckButton9(Draw Mesh)" #t)
(cx-gui-do cx-activate-item "Contours*Table1*Frame1*ToggleBox1(Options)*CheckButton9(Draw Mesh)")
(cx-gui-do cx-activate-item "Mesh Display*PanelButtons*PushButton1(OK)")
(cx-gui-do cx-activate-item "Mesh Display*PanelButtons*PushButton2(Cancel)")
(cx-gui-do cx-activate-item "Contours*PanelButtons*PushButton1(OK)")
(cx-gui-do cx-activate-item "Contours*PanelButtons*PushButton2(Cancel)")
(cx-gui-do cx-set-list-tree-selections "NavigationPane*Frame2*Table1*List_Tree2" (list "Results|Graphics|Contours|pressure"))
(cx-gui-do cx-set-list-tree-selections "NavigationPane*Frame2*Table1*List_Tree2" (list "Results|Graphics|Contours|pressure"))
(cx-gui-do cx-activate-item "NavigationPane*Frame2*Table1*List_Tree2")
(cx-gui-do cx-set-list-tree-selections "NavigationPane*Frame2*Table1*List_Tree2" (list "Results|Graphics|Contours|pressure"))
(cx-gui-do cx-set-list-selections "Contours*Table1*Frame3*Frame2*List2(Surfaces)" '())
(cx-gui-do cx-activate-item "Contours*Table1*Frame3*Frame2*List2(Surfaces)")
(cx-gui-do cx-set-list-selections "Contours*Table1*Frame3*Frame2*List2(Surfaces)" '( 6))
(cx-gui-do cx-activate-item "Contours*Table1*Frame3*Frame2*List2(Surfaces)")
(cx-gui-do cx-set-toggle-button2 "Contours*Table1*Frame1*ToggleBox1(Options)*CheckButton4(Contour Lines)" #f)
(cx-gui-do cx-activate-item "Contours*Table1*Frame1*ToggleBox1(Options)*CheckButton4(Contour Lines)")
(cx-gui-do cx-set-toggle-button2 "Contours*Table1*Frame1*ToggleBox1(Options)*CheckButton9(Draw Mesh)" #t)
(cx-gui-do cx-activate-item "Contours*Table1*Frame1*ToggleBox1(Options)*CheckButton9(Draw Mesh)")
(cx-gui-do cx-activate-item "Mesh Display*PanelButtons*PushButton1(OK)")
(cx-gui-do cx-activate-item "Mesh Display*PanelButtons*PushButton2(Cancel)")
(cx-gui-do cx-activate-item "Contours*PanelButtons*PushButton1(OK)")
(cx-gui-do cx-activate-item "Contours*Table1*Frame1*PushButton5(Colormap Options)")
(cx-gui-do cx-set-list-selections "Colormap*Table1*Frame4(Labels)*Frame4(Font)*DropDownList2(Font Behavior)" '( 1))
(cx-gui-do cx-activate-item "Colormap*Table1*Frame4(Labels)*Frame4(Font)*DropDownList2(Font Behavior)")
(cx-gui-do cx-set-integer-entry "Colormap*Table1*Frame4(Labels)*Frame4(Font)*IntegerEntry3(Font Size)" 22)
(cx-gui-do cx-activate-item "Colormap*Table1*Frame4(Labels)*Frame4(Font)*IntegerEntry3(Font Size)")
(cx-gui-do cx-set-list-selections "Colormap*Table1*Frame4(Labels)*Frame4(Font)*DropDownList1(Font Name)" '( 132))
(cx-gui-do cx-activate-item "Colormap*Table1*Frame4(Labels)*Frame4(Font)*DropDownList1(Font Name)")
(cx-gui-do cx-set-list-selections "Colormap*Table1*Frame4(Labels)*Frame3(Number Format)*DropDownList1(Type)" '( 2))
(cx-gui-do cx-activate-item "Colormap*Table1*Frame4(Labels)*Frame3(Number Format)*DropDownList1(Type)")
(cx-gui-do cx-activate-item "Colormap*PanelButtons*PushButton1(OK)")
(cx-gui-do cx-activate-item "Colormap*PanelButtons*PushButton1(OK)")
(cx-gui-do cx-set-toggle-button2 "Colormap*Table1*Frame5(Colormap)*Frame7(Colormap Background)*CheckButton1(Background Transparent)" #f)
(cx-gui-do cx-activate-item "Colormap*Table1*Frame5(Colormap)*Frame7(Colormap Background)*CheckButton1(Background Transparent)")
(cx-gui-do cx-activate-item "Colormap*PushButton2")
(cx-gui-do cx-activate-item "Colormap*PanelButtons*PushButton1(OK)")
(cx-gui-do cx-set-real-entry-list "Colormap*Table1*Frame5(Colormap)*Frame6(Colormap Dimensions)*RealEntry1(Length)" '( 0.8))
(cx-gui-do cx-set-real-entry-list "Colormap*Table1*Frame5(Colormap)*Frame6(Colormap Dimensions)*RealEntry2(Width Ratio)" '( 5.5))
(cx-gui-do cx-set-list-selections "Colormap*Table1*DropDownList2(Titles)" '( 1))
(cx-gui-do cx-activate-item "Colormap*Table1*DropDownList2(Titles)")
(cx-gui-do cx-activate-item "Colormap*PanelButtons*PushButton1(OK)")
(cx-gui-do cx-activate-item "Colormap*PanelButtons*PushButton2(Cancel)")
(cx-gui-do cx-activate-item "Contours*PanelButtons*PushButton1(OK)")
(cx-gui-do cx-activate-item "Contours*PanelButtons*PushButton2(Cancel)")
(cx-gui-do cx-set-list-tree-selections "NavigationPane*Frame2*Table1*List_Tree2" (list "Results|Graphics|Contours"))
(cx-gui-do cx-set-list-tree-selections "NavigationPane*Frame2*Table1*List_Tree2" (list "Results|Graphics|Contours"))
(cx-gui-do cx-activate-item "NavigationPane*Frame2*Table1*List_Tree2")
(cx-gui-do cx-set-list-tree-selections "NavigationPane*Frame2*Table1*List_Tree2" (list "Results|Graphics|Contours"))
(cx-gui-do cx-set-text-entry "Contours*Table1*TextEntry2(Contour Name)" "schlieren")
(cx-gui-do cx-activate-item "Contours*Table1*Frame1*PushButton5(Colormap Options)")
(cx-gui-do cx-set-toggle-button2 "Colormap*Table1*CheckButton1(Show Colormap)" #f)
(cx-gui-do cx-activate-item "Colormap*Table1*CheckButton1(Show Colormap)")
(cx-gui-do cx-activate-item "Colormap*PanelButtons*PushButton1(OK)")
(cx-gui-do cx-activate-item "Colormap*PanelButtons*PushButton2(Cancel)")
(cx-gui-do cx-set-list-selections "Contours*Table1*Frame3*Table1*DropDownList1(Contours of)" '( 1))
(cx-gui-do cx-activate-item "Contours*Table1*Frame3*Table1*DropDownList1(Contours of)")
(cx-gui-do cx-set-list-selections "Contours*Table1*Frame3*Table1*DropDownList2" '( 5))
(cx-gui-do cx-activate-item "Contours*Table1*Frame3*Table1*DropDownList2")
(cx-gui-do cx-set-list-selections "Contours*Table1*Frame3*Frame2*List2(Surfaces)" '( 5))
(cx-gui-do cx-activate-item "Contours*Table1*Frame3*Frame2*List2(Surfaces)")
(cx-gui-do cx-set-list-selections "Contours*Table1*Frame3*Frame2*List2(Surfaces)" '())
(cx-gui-do cx-activate-item "Contours*Table1*Frame3*Frame2*List2(Surfaces)")
(cx-gui-do cx-set-list-selections "Contours*Table1*Frame3*Frame2*List2(Surfaces)" '( 6))
(cx-gui-do cx-activate-item "Contours*Table1*Frame3*Frame2*List2(Surfaces)")
(cx-gui-do cx-activate-item "Contours*PanelButtons*PushButton1(OK)")
(cx-gui-do cx-set-list-selections "Contours*Table1*Frame3*Table1*DropDownList2" '( 4))
(cx-gui-do cx-activate-item "Contours*Table1*Frame3*Table1*DropDownList2")
(cx-gui-do cx-activate-item "Contours*PanelButtons*PushButton1(OK)")
(cx-gui-do cx-set-list-selections "Contours*Table1*Frame3*Table1*DropDownList2" '( 3))
(cx-gui-do cx-activate-item "Contours*Table1*Frame3*Table1*DropDownList2")
(cx-gui-do cx-activate-item "Contours*PanelButtons*PushButton1(OK)")
(cx-gui-do cx-set-list-selections "Contours*Table1*Frame3*Table1*DropDownList2" '( 5))
(cx-gui-do cx-activate-item "Contours*Table1*Frame3*Table1*DropDownList2")
(cx-gui-do cx-activate-item "Contours*PanelButtons*PushButton1(OK)")
(cx-gui-do cx-activate-item "Contours*PanelButtons*PushButton1(OK)")
(cx-gui-do cx-activate-item "Contours*PanelButtons*PushButton2(Cancel)")
(cx-gui-do cx-set-list-tree-selections "NavigationPane*Frame2*Table1*List_Tree2" (list "Results|Plots|XY Plot|temperature_plot"))
(cx-gui-do cx-set-list-tree-selections "NavigationPane*Frame2*Table1*List_Tree2" (list "Results|Plots|XY Plot|temperature_plot"))
(cx-gui-do cx-set-list-tree-selections "NavigationPane*Frame2*Table1*List_Tree2" (list "Results|Plots|XY Plot|temperature_plot"))
(cx-gui-do cx-activate-item "NavigationPane*Frame2*Table1*List_Tree2")
(cx-gui-do cx-set-list-tree-selections "NavigationPane*Frame2*Table1*List_Tree2" (list "Results|Plots|XY Plot|temperature_plot"))
(cx-gui-do cx-set-text-entry "Solution XY Plot*Table1*TextEntry4(XY Plot Name)" "temperature_comparison_plot")
(cx-gui-do cx-activate-item "Solution XY Plot*PanelButtons*PushButton1(OK)")
(cx-gui-do cx-activate-item "Solution XY Plot*PanelButtons*PushButton2(Cancel)")
(cx-gui-do cx-set-list-tree-selections "NavigationPane*Frame2*Table1*List_Tree2" (list "Results|Plots|XY Plot|temperature_across_shock"))
(cx-gui-do cx-set-list-tree-selections "NavigationPane*Frame2*Table1*List_Tree2" (list "Results|Plots|XY Plot|temperature_across_shock"))
(cx-gui-do cx-activate-item "NavigationPane*Frame2*Table1*List_Tree2")
(cx-gui-do cx-set-list-tree-selections "NavigationPane*Frame2*Table1*List_Tree2" (list "Results|Plots|XY Plot|temperature_across_shock"))
(cx-gui-do cx-activate-item "Solution XY Plot*PanelButtons*PushButton1(OK)")
(cx-gui-do cx-set-toggle-button2 "Solution XY Plot*Table1*Table1*ButtonBox1(Options)*CheckButton4(Write to File)" #t)
(cx-gui-do cx-activate-item "Solution XY Plot*Table1*Table1*ButtonBox1(Options)*CheckButton4(Write to File)")
(cx-gui-do cx-activate-item "Solution XY Plot*PanelButtons*PushButton1(OK)")
(cx-gui-do cx-set-toggle-button2 "Solution XY Plot*Table1*Table1*ButtonBox1(Options)*CheckButton4(Write to File)" #f)
(cx-gui-do cx-activate-item "Solution XY Plot*Table1*Table1*ButtonBox1(Options)*CheckButton4(Write to File)")
(cx-gui-do cx-activate-item "Solution XY Plot*PanelButtons*PushButton1(OK)")
(cx-gui-do cx-activate-item "Solution XY Plot*PanelButtons*PushButton2(Cancel)")
(cx-gui-do cx-set-list-tree-selections "NavigationPane*Frame2*Table1*List_Tree2" (list "Results|Plots|XY Plot"))
(cx-gui-do cx-set-list-tree-selections "NavigationPane*Frame2*Table1*List_Tree2" (list "Results|Plots|XY Plot"))
(cx-gui-do cx-activate-item "NavigationPane*Frame2*Table1*List_Tree2")
(cx-gui-do cx-set-list-tree-selections "NavigationPane*Frame2*Table1*List_Tree2" (list "Results|Plots|XY Plot"))
(cx-gui-do cx-set-text-entry "Solution XY Plot*Table1*TextEntry4(XY Plot Name)" "mach_across_shock")
(cx-gui-do cx-set-list-selections "Solution XY Plot*Table1*Table3*Table1*DropDownList1(Y Axis Function)" '( 2))
(cx-gui-do cx-activate-item "Solution XY Plot*Table1*Table3*Table1*DropDownList1(Y Axis Function)")
(cx-gui-do cx-set-list-selections "Solution XY Plot*Table1*Table3*Table1*DropDownList2" '( 6))
(cx-gui-do cx-activate-item "Solution XY Plot*Table1*Table3*Table1*DropDownList2")
(cx-gui-do cx-set-list-selections "Solution XY Plot*Table1*Table3*Frame3*List1(Surfaces)" '( 2))
(cx-gui-do cx-activate-item "Solution XY Plot*Table1*Table3*Frame3*List1(Surfaces)")
(cx-gui-do cx-activate-item "Solution XY Plot*PanelButtons*PushButton1(OK)")
(cx-gui-do cx-activate-item "Solution XY Plot*PanelButtons*PushButton2(Cancel)")
(cx-gui-do cx-set-list-tree-selections "NavigationPane*Frame2*Table1*List_Tree2" (list "Results|Plots|XY Plot"))
(cx-gui-do cx-set-list-tree-selections "NavigationPane*Frame2*Table1*List_Tree2" (list "Results|Plots|XY Plot"))
(cx-gui-do cx-activate-item "NavigationPane*Frame2*Table1*List_Tree2")
(cx-gui-do cx-set-list-tree-selections "NavigationPane*Frame2*Table1*List_Tree2" (list "Results|Plots|XY Plot"))
(cx-gui-do cx-set-text-entry "Solution XY Plot*Table1*TextEntry4(XY Plot Name)" "density_across_shock")
(cx-gui-do cx-set-list-selections "Solution XY Plot*Table1*Table3*Table1*DropDownList1(Y Axis Function)" '( 1))
(cx-gui-do cx-activate-item "Solution XY Plot*Table1*Table3*Table1*DropDownList1(Y Axis Function)")
(cx-gui-do cx-set-list-selections "Solution XY Plot*Table1*Table3*Frame3*List1(Surfaces)" '( 2))
(cx-gui-do cx-activate-item "Solution XY Plot*Table1*Table3*Frame3*List1(Surfaces)")
(cx-gui-do cx-activate-item "Solution XY Plot*PanelButtons*PushButton1(OK)")
(cx-gui-do cx-activate-item "Solution XY Plot*PanelButtons*PushButton2(Cancel)")
(cx-gui-do cx-set-list-tree-selections "NavigationPane*Frame2*Table1*List_Tree2" (list "Results|Plots|XY Plot"))
(cx-gui-do cx-set-list-tree-selections "NavigationPane*Frame2*Table1*List_Tree2" (list "Results|Plots|XY Plot"))
(cx-gui-do cx-activate-item "NavigationPane*Frame2*Table1*List_Tree2")
(cx-gui-do cx-set-list-tree-selections "NavigationPane*Frame2*Table1*List_Tree2" (list "Results|Plots|XY Plot"))
(cx-gui-do cx-activate-item "Solution XY Plot*PanelButtons*PushButton2(Cancel)")
(cx-gui-do cx-set-list-tree-selections "NavigationPane*Frame2*Table1*List_Tree2" (list "Results|Plots|XY Plot|mach_across_shock"))
(cx-gui-do cx-set-list-tree-selections "NavigationPane*Frame2*Table1*List_Tree2" (list "Results|Plots|XY Plot|mach_across_shock"))
(cx-gui-do cx-activate-item "NavigationPane*Frame2*Table1*List_Tree2")
(cx-gui-do cx-set-list-tree-selections "NavigationPane*Frame2*Table1*List_Tree2" (list "Results|Plots|XY Plot|mach_across_shock"))
(cx-gui-do cx-set-toggle-button2 "Solution XY Plot*Table1*Table1*ButtonBox1(Options)*CheckButton4(Write to File)" #t)
(cx-gui-do cx-activate-item "Solution XY Plot*Table1*Table1*ButtonBox1(Options)*CheckButton4(Write to File)")
(cx-gui-do cx-activate-item "Solution XY Plot*PanelButtons*PushButton1(OK)")
(cx-gui-do cx-set-file-dialog-entries "Select File" '( "C:/Users/cvest/Claudio/Oxford/3rd Year/B3/CubeSat_project/Claudio/Aerothermal/CFD/2d Sim/No Refinement/With new many axes/Isothermal Rees Conditions/data/mach_across_shock_new_no_refinement") "XY Files (*.xy)")
(cx-gui-do cx-activate-item "Solution XY Plot*PanelButtons*PushButton2(Cancel)")
(cx-gui-do cx-set-list-tree-selections "NavigationPane*Frame2*Table1*List_Tree2" (list "Results|Plots|XY Plot"))
(cx-gui-do cx-set-list-tree-selections "NavigationPane*Frame2*Table1*List_Tree2" (list "Results|Plots|XY Plot"))
(cx-gui-do cx-activate-item "NavigationPane*Frame2*Table1*List_Tree2")
(cx-gui-do cx-set-list-tree-selections "NavigationPane*Frame2*Table1*List_Tree2" (list "Results|Plots|XY Plot"))
(cx-gui-do cx-set-text-entry "Solution XY Plot*Table1*TextEntry4(XY Plot Name)" "wall_stanton")
(cx-gui-do cx-set-toggle-button2 "Solution XY Plot*Table1*Table1*ButtonBox1(Options)*CheckButton2(Position on X Axis)" #f)
(cx-gui-do cx-activate-item "Solution XY Plot*Table1*Table1*ButtonBox1(Options)*CheckButton2(Position on X Axis)")
(cx-gui-do cx-set-toggle-button2 "Solution XY Plot*Table1*Table1*ButtonBox1(Options)*CheckButton3(Position on Y Axis)" #t)
(cx-gui-do cx-activate-item "Solution XY Plot*Table1*Table1*ButtonBox1(Options)*CheckButton3(Position on Y Axis)")
(cx-gui-do cx-set-real-entry-list "Solution XY Plot*Table1*Table2*ButtonBox1(Plot Direction)*RealEntry1(X)" '( 0))
(cx-gui-do cx-set-real-entry-list "Solution XY Plot*Table1*Table2*ButtonBox1(Plot Direction)*RealEntry2(Y)" '( 1))
(cx-gui-do cx-set-list-selections "Solution XY Plot*Table1*Table3*Table1*DropDownList1(Y Axis Function)" '( 0))
(cx-gui-do cx-activate-item "Solution XY Plot*Table1*Table3*Table1*DropDownList1(Y Axis Function)")
(cx-gui-do cx-set-list-selections "Solution XY Plot*Table1*Table3*Table2*DropDownList1(X Axis Function)" '( 6))
(cx-gui-do cx-activate-item "Solution XY Plot*Table1*Table3*Table2*DropDownList1(X Axis Function)")
(cx-gui-do cx-set-list-selections "Solution XY Plot*Table1*Table3*Table2*DropDownList2" '( 10))
(cx-gui-do cx-activate-item "Solution XY Plot*Table1*Table3*Table2*DropDownList2")
(cx-gui-do cx-set-list-selections "Solution XY Plot*Table1*Table3*Frame3*List1(Surfaces)" '( 8))
(cx-gui-do cx-activate-item "Solution XY Plot*Table1*Table3*Frame3*List1(Surfaces)")
(cx-gui-do cx-set-list-selections "Solution XY Plot*Table1*Table3*Frame3*List1(Surfaces)" '( 8))
(cx-gui-do cx-activate-item "Solution XY Plot*Table1*Table3*Frame3*List1(Surfaces)")
(cx-gui-do cx-set-list-selections "Solution XY Plot*Table1*Table3*Frame3*List1(Surfaces)" '( 8))
(cx-gui-do cx-activate-item "Solution XY Plot*Table1*Table3*Frame3*List1(Surfaces)")
(cx-gui-do cx-activate-item "Solution XY Plot*PanelButtons*PushButton1(OK)")
(cx-gui-do cx-activate-item "Solution XY Plot*PanelButtons*PushButton2(Cancel)")
(cx-gui-do cx-activate-item "Ribbon*Frame1*Frame6(Results)*Table1*Table3(Surface)*PushButton1(Create)")
(cx-gui-do cx-activate-item "Ribbon*Frame1*Frame6(Results)*Table1*Table3(Surface)*PushButton1(Create)")
(cx-gui-do cx-activate-item "MenuBar*WriteSubMenu*Case & Data...")
(cx-gui-do cx-set-file-dialog-entries "Select File" '( "FFF.cas.h5") "CFF Case/Data Files (*.cas.h5 *.dat.h5 )")
(cx-gui-do cx-activate-item "Question*OK")

Writing to ClouDsBlade14:"C:/Users/cvest/Claudio/Oxford/3rd Year/B3/CubeSat_project/Claudio/Aerothermal/CFD/2d Sim/No Refinement/With new many axes/Isothermal Rees Conditions/No refinement/FFF.cas.h5" in NODE0 mode and compression level 1 ...
Grouping cells for Laplace smoothing ...
       47868 cells,     1 zone  ...
       80352 faces,     3 zones ...
       32484 nodes,     1 zone  ...
  Done.
Done.

Writing to ClouDsBlade14:"C:/Users/cvest/Claudio/Oxford/3rd Year/B3/CubeSat_project/Claudio/Aerothermal/CFD/2d Sim/No Refinement/With new many axes/Isothermal Rees Conditions/No refinement/FFF.dat.h5" in NODE0 mode and compression level 1 ...
  Writing results.
Done.
(cx-gui-do cx-set-list-tree-selections "NavigationPane*Frame2*Table1*List_Tree2" (list "Results|Plots|XY Plot"))
(cx-gui-do cx-set-list-tree-selections "NavigationPane*Frame2*Table1*List_Tree2" (list "Results|Plots|XY Plot"))
(cx-gui-do cx-activate-item "NavigationPane*Frame2*Table1*List_Tree2")
(cx-gui-do cx-set-list-tree-selections "NavigationPane*Frame2*Table1*List_Tree2" (list "Results|Plots|XY Plot"))
(cx-gui-do cx-set-text-entry "Solution XY Plot*Table1*TextEntry4(XY Plot Name)" "wall_skin_friction")
(cx-gui-do cx-set-toggle-button2 "Solution XY Plot*Table1*Table1*ButtonBox1(Options)*CheckButton2(Position on X Axis)" #f)
(cx-gui-do cx-activate-item "Solution XY Plot*Table1*Table1*ButtonBox1(Options)*CheckButton2(Position on X Axis)")
(cx-gui-do cx-set-toggle-button2 "Solution XY Plot*Table1*Table1*ButtonBox1(Options)*CheckButton3(Position on Y Axis)" #t)
(cx-gui-do cx-activate-item "Solution XY Plot*Table1*Table1*ButtonBox1(Options)*CheckButton3(Position on Y Axis)")
(cx-gui-do cx-set-real-entry-list "Solution XY Plot*Table1*Table2*ButtonBox1(Plot Direction)*RealEntry2(Y)" '( 11))
(cx-gui-do cx-set-real-entry-list "Solution XY Plot*Table1*Table2*ButtonBox1(Plot Direction)*RealEntry1(X)" '( 0))
(cx-gui-do cx-set-real-entry-list "Solution XY Plot*Table1*Table2*ButtonBox1(Plot Direction)*RealEntry2(Y)" '( 1))
(cx-gui-do cx-set-list-selections "Solution XY Plot*Table1*Table3*Table2*DropDownList1(X Axis Function)" '( 6))
(cx-gui-do cx-activate-item "Solution XY Plot*Table1*Table3*Table2*DropDownList1(X Axis Function)")
(cx-gui-do cx-set-list-selections "Solution XY Plot*Table1*Table1*List2(File Data)" '())
(cx-gui-do cx-activate-item "Solution XY Plot*Table1*Table1*List2(File Data)")
(cx-gui-do cx-set-list-selections "Solution XY Plot*Table1*Table3*Frame3*List1(Surfaces)" '( 8))
(cx-gui-do cx-activate-item "Solution XY Plot*Table1*Table3*Frame3*List1(Surfaces)")
(cx-gui-do cx-activate-item "Solution XY Plot*PanelButtons*PushButton1(OK)")
(cx-gui-do cx-set-list-selections "Solution XY Plot*Table1*Table3*Table2*DropDownList2" '( 3))
(cx-gui-do cx-activate-item "Solution XY Plot*Table1*Table3*Table2*DropDownList2")
(cx-gui-do cx-activate-item "Solution XY Plot*PanelButtons*PushButton1(OK)")
(cx-gui-do cx-activate-item "Solution XY Plot*PanelButtons*PushButton2(Cancel)")
(cx-gui-do cx-activate-item "MenuBar*WriteSubMenu*Case & Data...")
(cx-gui-do cx-set-file-dialog-entries "Select File" '( "FFF.cas.h5") "CFF Case/Data Files (*.cas.h5 *.dat.h5 )")
(cx-gui-do cx-activate-item "Question*OK")

Writing to ClouDsBlade14:"C:/Users/cvest/Claudio/Oxford/3rd Year/B3/CubeSat_project/Claudio/Aerothermal/CFD/2d Sim/No Refinement/With new many axes/Isothermal Rees Conditions/No refinement/FFF.cas.h5" in NODE0 mode and compression level 1 ...
Grouping cells for Laplace smoothing ...
       47868 cells,     1 zone  ...
       80352 faces,     3 zones ...
       32484 nodes,     1 zone  ...
  Done.
Done.

Writing to ClouDsBlade14:"C:/Users/cvest/Claudio/Oxford/3rd Year/B3/CubeSat_project/Claudio/Aerothermal/CFD/2d Sim/No Refinement/With new many axes/Isothermal Rees Conditions/No refinement/FFF.dat.h5" in NODE0 mode and compression level 1 ...
  Writing results.
Done.
(cx-gui-do cx-activate-item "Ribbon*Frame1*Frame2(Domain)*Table1*Table3(Adapt)*Table1*PushButton1(Manual)")
(cx-gui-do cx-activate-item "Manual Mesh Adaption*Table1*Table2*Table1*PushButton2(Cell Registers)")
(cx-gui-do cx-activate-item "MenuBar*NewSubMenu*Field Variable...")
(cx-gui-do cx-activate-item "Field Variable Register*PanelButtons*PushButton3(Save/Display)")
2 cells marked
(cx-gui-do cx-activate-item "Field Variable Register*PanelButtons*PushButton5(Compute)")
(cx-gui-do cx-activate-item "Field Variable Register*PanelButtons*PushButton3(Save/Display)")
2 cells marked
(cx-gui-do cx-set-list-selections "Field Variable Register*Table2*DropDownList2(Derivative Option)" '( 1))
(cx-gui-do cx-activate-item "Field Variable Register*Table2*DropDownList2(Derivative Option)")
(cx-gui-do cx-activate-item "Field Variable Register*PanelButtons*PushButton5(Compute)")
(cx-gui-do cx-set-list-selections "Field Variable Register*Table2*DropDownList1(Type)" '( 2))
(cx-gui-do cx-activate-item "Field Variable Register*Table2*DropDownList1(Type)")
(cx-gui-do cx-set-real-entry-list "Field Variable Register*Table3*Table4*RealEntry14" '( 10000))
(cx-gui-do cx-set-text-entry "Field Variable Register*TextEntry1(Name)" "pressure_gradient")
(cx-gui-do cx-activate-item "Field Variable Register*PanelButtons*PushButton3(Save/Display)")
93 cells marked
(cx-gui-do cx-set-real-entry-list "Field Variable Register*Table3*Table4*RealEntry14" '( 8000))
(cx-gui-do cx-activate-item "Field Variable Register*PanelButtons*PushButton3(Save/Display)")
149 cells marked
(cx-gui-do cx-set-real-entry-list "Field Variable Register*Table3*Table4*RealEntry14" '( 9000))
(cx-gui-do cx-activate-item "Field Variable Register*PanelButtons*PushButton3(Save/Display)")
121 cells marked
(cx-gui-do cx-set-real-entry-list "Field Variable Register*Table3*Table4*RealEntry14" '( 10000))
(cx-gui-do cx-activate-item "Field Variable Register*PanelButtons*PushButton3(Save/Display)")
93 cells marked
(cx-gui-do cx-set-text-entry "Field Variable Register*TextEntry1(Name)" "pressure_gradient_10k")
(cx-gui-do cx-activate-item "Field Variable Register*PanelButtons*PushButton3(Save/Display)")
93 cells marked
(cx-gui-do cx-activate-item "Field Variable Register*PanelButtons*PushButton1(Close)")
(cx-gui-do cx-set-expression-entry "Manual Mesh Adaption*Table1*Table1*Table1*ExpressionEntry1(Refinement Criterion)" '("pressure_gradient_10k" . 5))
(cx-gui-do cx-activate-item "Manual Mesh Adaption*Table1*Table1*Table1*ExpressionEntry1(Refinement Criterion)")
(cx-gui-do cx-activate-item "Manual Mesh Adaption*PanelButtons*PushButton4(Display)")
(cx-gui-do cx-activate-item "Manual Mesh Adaption*PanelButtons*PushButton1(Apply)")

 Dump usage: 47868 cells, 80352 faces, 32484 nodes

 Dump usage: 48147 cells, 80837 faces, 32690 nodes

 Grid size ( original /   adapted /    change)
     cells (    47868 /     48147 /       279)
     faces (    80352 /     80837 /       485)
     nodes (    32484 /     32690 /       206)

Info: The hanging node adaption method will not be available for 2D cases in a future release of Fluent. The PUMA 2.5D adaption method can be used instead. To use PUMA 2.5D, convert the 2D mesh to a 3D mesh with a thickness of one cell layer, and enter the following text command:
mesh/adapt/set/method puma-2.5d
Support for the hanging node method is extended to the current release, in order to provide time for you to migrate your cases to the PUMA method.

(cx-gui-do cx-activate-item "Information*OK")
(cx-gui-do cx-activate-item "Manual Mesh Adaption*PanelButtons*PushButton2(Close)")
(cx-gui-do cx-activate-item "Ribbon*Frame1*Frame2(Domain)*Table1*Table3(Mesh)*PushButton1(Display)")
(cx-gui-do cx-activate-item "Mesh Display*PanelButtons*PushButton1(OK)")
(cx-gui-do cx-activate-item "Mesh Display*PanelButtons*PushButton2(Cancel)")
(cx-gui-do cx-set-list-tree-selections "NavigationPane*Frame2*Table1*List_Tree2" (list "Solution|Initialization"))
(cx-gui-do cx-set-list-tree-selections "NavigationPane*Frame2*Table1*List_Tree2" (list "Solution|Initialization"))
(cx-gui-do cx-activate-item "NavigationPane*Frame2*Table1*List_Tree2")
(cx-gui-do cx-set-list-tree-selections "NavigationPane*Frame2*Table1*List_Tree2" (list "Solution|Initialization"))
(cx-gui-do cx-activate-item "Solution Initialization*Table1*Frame9*PushButton1(Initialize)")
(cx-gui-do cx-set-list-tree-selections "NavigationPane*Frame2*Table1*List_Tree2" (list "Solution|Run Calculation"))
(cx-gui-do cx-set-list-tree-selections "NavigationPane*Frame2*Table1*List_Tree2" (list "Solution|Run Calculation"))
(cx-gui-do cx-activate-item "NavigationPane*Frame2*Table1*List_Tree2")
(cx-gui-do cx-set-list-tree-selections "NavigationPane*Frame2*Table1*List_Tree2" (list "Solution|Run Calculation"))
(cx-gui-do cx-activate-item "Run Calculation*Table1*Table6(Solution Advancement)*Table1*PushButton1(Calculate)")


  iter  continuity  x-velocity  y-velocity      energy           k       omega     time/iter
 time step reduced in 16 cells due to excessive pressure change
     1  1.0733e-01  1.0952e-01  2.4472e-06  6.4266e-01  1.0000e+01  8.0080e-03  0:00:00  999
 time step reduced in 16 cells due to excessive pressure change
     2  6.3515e-02  1.8991e-01  6.2271e-03  6.9790e-02  1.3229e-02  6.9740e-03  0:16:38  998
     3  7.3324e-02  2.1245e-01  5.7283e-03  7.6816e-02  4.4897e-03  9.2682e-03  0:13:18  997

 time step reduced in 4 cells due to excessive temperature change
     4  5.8955e-02  1.3088e-01  4.5148e-03  7.0740e-02  4.2071e-03  6.6964e-03  0:10:37  996

 time step reduced in 2 cells due to excessive temperature change
 time step reduced in 196 cells due to excessive pressure change
     5  3.0294e-02  1.2294e-01  3.2788e-03  5.0415e-02  4.6861e-03  6.9111e-03  0:08:29  995

 time step reduced in 4 cells due to excessive temperature change
 time step reduced in 220 cells due to excessive pressure change
     6  2.1519e-02  7.7126e-02  2.2742e-03  4.5915e-02  4.8644e-03  8.6078e-03  0:10:06  994

 time step reduced in 2 cells due to excessive temperature change
 time step reduced in 588 cells due to excessive pressure change
     7  1.7815e-02  3.8989e-02  1.7106e-03  3.8321e-02  4.9191e-03  9.9628e-03  0:08:04  993

 time step reduced in 4 cells due to excessive temperature change
 time step reduced in 636 cells due to excessive pressure change
     8  1.4867e-02  3.7922e-02  1.4722e-03  3.5934e-02  4.8672e-03  1.1364e-02  0:06:27  992

 time step reduced in 14 cells due to excessive temperature change
 time step reduced in 726 cells due to excessive pressure change
     9  1.3411e-02  2.6221e-02  1.3694e-03  2.7570e-02  4.7479e-03  1.3522e-02  0:05:09  991

 time step reduced in 10 cells due to excessive temperature change
 time step reduced in 768 cells due to excessive pressure change
    10  1.2819e-02  3.2181e-02  1.4218e-03  2.4395e-02  4.5035e-03  1.3182e-02  0:04:07  990

 time step reduced in 2 cells due to excessive temperature change
 time step reduced in 768 cells due to excessive pressure change
    11  1.2285e-02  2.2939e-02  1.4423e-03  2.1041e-02  4.0574e-03  1.0744e-02  0:03:18  989
 time step reduced in 886 cells due to excessive pressure change

  iter  continuity  x-velocity  y-velocity      energy           k       omega     time/iter
    12  1.1886e-02  2.2788e-02  1.5406e-03  1.8286e-02  3.3566e-03  9.0616e-03  0:05:55  988
 time step reduced in 954 cells due to excessive pressure change
    13  1.1471e-02  1.6245e-02  1.5914e-03  1.5754e-02  2.7798e-03  8.0860e-03  0:04:44  987
 time step reduced in 956 cells due to excessive pressure change
    14  1.1115e-02  1.5580e-02  1.5652e-03  1.4154e-02  2.6023e-03  7.3952e-03  0:03:47  986

 time step reduced in 2 cells due to excessive temperature change
 time step reduced in 1120 cells due to excessive pressure change
    15  1.0679e-02  1.5692e-02  1.4850e-03  1.2651e-02  2.5820e-03  6.6276e-03  0:03:01  985
 time step reduced in 1130 cells due to excessive pressure change
    16  1.0275e-02  1.3694e-02  1.4240e-03  1.1479e-02  2.6284e-03  5.8832e-03  0:02:25  984
 time step reduced in 1286 cells due to excessive pressure change
    17  9.9005e-03  1.2172e-02  1.3774e-03  1.0599e-02  2.6208e-03  5.2180e-03  0:05:12  983
 time step reduced in 1126 cells due to excessive pressure change
    18  9.6214e-03  1.1307e-02  1.3595e-03  1.0068e-02  2.4878e-03  4.5285e-03  0:04:10  982

 time step reduced in 1 cells due to excessive temperature change
 time step reduced in 1224 cells due to excessive pressure change
    19  9.4277e-03  1.1041e-02  1.3474e-03  9.8042e-03  2.4037e-03  3.8177e-03  0:03:20  981

 time step reduced in 1 cells due to excessive temperature change
 time step reduced in 1264 cells due to excessive pressure change
    20  9.2603e-03  1.1137e-02  1.3525e-03  9.6114e-03  2.3656e-03  3.2298e-03  0:02:40  980

 time step reduced in 5 cells due to excessive temperature change
 time step reduced in 1549 cells due to excessive pressure change
    21  9.0346e-03  1.1835e-02  1.3815e-03  9.3281e-03  2.3228e-03  2.8738e-03  0:02:07  979

 time step reduced in 5 cells due to excessive temperature change
 time step reduced in 1374 cells due to excessive pressure change
    22  8.8458e-03  1.1986e-02  1.3987e-03  8.8845e-03  2.2290e-03  2.7198e-03  0:01:42  978

 time step reduced in 10 cells due to excessive temperature change
 time step reduced in 1383 cells due to excessive pressure change

  iter  continuity  x-velocity  y-velocity      energy           k       omega     time/iter
    23  8.7272e-03  1.2304e-02  1.4190e-03  8.3448e-03  2.0871e-03  2.6597e-03  0:04:37  977

 time step reduced in 9 cells due to excessive temperature change
 time step reduced in 1202 cells due to excessive pressure change
    24  8.6722e-03  1.2557e-02  1.4300e-03  7.9153e-03  1.9521e-03  2.6494e-03  0:03:41  976

 time step reduced in 11 cells due to excessive temperature change
 time step reduced in 1128 cells due to excessive pressure change
    25  8.6736e-03  1.3131e-02  1.4654e-03  7.5327e-03  1.8236e-03  2.7033e-03  0:02:57  975

 time step reduced in 17 cells due to excessive temperature change
 time step reduced in 824 cells due to excessive pressure change
    26  8.6863e-03  1.3545e-02  1.4843e-03  7.1338e-03  1.7338e-03  2.7713e-03  0:02:21  974

 time step reduced in 21 cells due to excessive temperature change
 time step reduced in 409 cells due to excessive pressure change
    27  8.7796e-03  1.3989e-02  1.5189e-03  6.8619e-03  1.6986e-03  2.8081e-03  0:01:53  973

 time step reduced in 49 cells due to excessive temperature change
 time step reduced in 198 cells due to excessive pressure change
    28  8.8948e-03  1.4608e-02  1.5785e-03  6.7165e-03  1.7059e-03  2.7591e-03  0:04:45  972

 time step reduced in 46 cells due to excessive temperature change
 time step reduced in 70 cells due to excessive pressure change
    29  9.0191e-03  1.4982e-02  1.6284e-03  6.5786e-03  1.6977e-03  2.6922e-03  0:03:47  971

 time step reduced in 35 cells due to excessive temperature change
 time step reduced in 4 cells due to excessive pressure change
    30  9.1759e-03  1.5688e-02  1.7106e-03  6.6122e-03  1.6736e-03  2.6002e-03  0:03:02  970

 time step reduced in 26 cells due to excessive temperature change
    31  9.3081e-03  1.6178e-02  1.7727e-03  6.6637e-03  1.6323e-03  2.4912e-03  0:02:25  969

 time step reduced in 21 cells due to excessive temperature change
    32  9.4152e-03  1.6444e-02  1.8371e-03  6.6480e-03  1.5897e-03  2.3683e-03  0:01:56  968

 time step reduced in 19 cells due to excessive temperature change
    33  9.3673e-03  1.6933e-02  1.9256e-03  6.6621e-03  1.5407e-03  2.2286e-03  0:01:33  967

 time step reduced in 11 cells due to excessive temperature change

  iter  continuity  x-velocity  y-velocity      energy           k       omega     time/iter
    34  9.0954e-03  1.7232e-02  2.0019e-03  6.7095e-03  1.4842e-03  2.0035e-03  0:04:27  966

 time step reduced in 5 cells due to excessive temperature change
    35  8.8147e-03  1.7695e-02  2.0979e-03  6.7385e-03  1.4299e-03  1.6819e-03  0:03:34  965

 time step reduced in 2 cells due to excessive temperature change
    36  8.5207e-03  1.7820e-02  2.1810e-03  6.7556e-03  1.3616e-03  1.3563e-03  0:02:51  964

 time step reduced in 1 cells due to excessive temperature change
    37  8.2724e-03  1.7991e-02  2.2768e-03  6.7817e-03  1.2863e-03  1.1384e-03  0:02:16  963

 time step reduced in 1 cells due to excessive temperature change
    38  8.0623e-03  1.8290e-02  2.3766e-03  6.8374e-03  1.2275e-03  9.9696e-04  0:01:49  962

 time step reduced in 1 cells due to excessive temperature change
    39  7.1751e-03  1.8418e-02  2.4616e-03  6.9180e-03  1.1759e-03  8.8965e-04  0:01:27  961
    40  5.6991e-03  1.8266e-02  2.5307e-03  6.8635e-03  1.0998e-03  7.9869e-04  0:04:22  960
    41  5.9705e-03  1.8324e-02  2.6092e-03  6.8997e-03  1.0571e-03  7.1798e-04  0:03:29  959
    42  6.1428e-03  1.8636e-02  2.6935e-03  6.9736e-03  1.0293e-03  6.4426e-04  0:02:47  958
    43  6.2786e-03  1.8656e-02  2.7645e-03  7.0035e-03  1.0155e-03  5.7613e-04  0:02:14  957
    44  6.3171e-03  1.8415e-02  2.8208e-03  6.9993e-03  9.9095e-04  5.1163e-04  0:01:47  956

  iter  continuity  x-velocity  y-velocity      energy           k       omega     time/iter
    45  6.2207e-03  1.8309e-02  2.8857e-03  7.0174e-03  9.8631e-04  4.4958e-04  0:01:25  955
    46  6.0470e-03  1.8235e-02  2.9494e-03  7.0125e-03  1.0004e-03  3.8983e-04  0:04:19  954
    47  5.9468e-03  1.8511e-02  3.0185e-03  7.0290e-03  1.0133e-03  3.3790e-04  0:03:27  953
    48  5.6817e-03  1.8295e-02  3.0586e-03  7.0393e-03  1.0048e-03  2.9650e-04  0:09:06  952
    49  5.3626e-03  1.8104e-02  3.1116e-03  7.1070e-03  1.0005e-03  2.6890e-04  0:10:27  951
    50  5.0714e-03  1.8157e-02  3.1590e-03  7.1658e-03  1.0058e-03  2.8262e-04  0:08:21  950
    51  4.8912e-03  1.8293e-02  3.1863e-03  7.1386e-03  9.8939e-04  3.9772e-04  0:06:40  949
    52  4.6119e-03  1.8451e-02  3.1940e-03  7.1962e-03  9.8192e-04  5.8337e-04  0:05:20  948
    53  4.5555e-03  1.8199e-02  3.1754e-03  7.2621e-03  9.7075e-04  7.6126e-04  0:07:25  947
    54  4.6203e-03  1.8209e-02  3.1519e-03  7.3345e-03  9.7528e-04  8.6564e-04  0:05:56  946
    55  4.6965e-03  1.8392e-02  3.1394e-03  7.4245e-03  9.9845e-04  9.2019e-04  0:04:44  945

  iter  continuity  x-velocity  y-velocity      energy           k       omega     time/iter
    56  4.8752e-03  1.8562e-02  3.1213e-03  7.4893e-03  9.9692e-04  9.8841e-04  0:03:47  944
    57  5.1106e-03  1.8333e-02  3.0877e-03  7.4630e-03  1.0014e-03  1.0204e-03  0:03:02  943
    58  5.1112e-03  1.7954e-02  3.0464e-03  7.4480e-03  1.0028e-03  1.0308e-03  0:05:33  942
    59  5.1388e-03  1.7887e-02  2.9975e-03  7.4820e-03  1.0093e-03  1.0363e-03  0:04:26  941
    60  5.1566e-03  1.7617e-02  2.9607e-03  7.4974e-03  9.9423e-04  1.0305e-03  0:03:33  940
    61  5.1358e-03  1.7444e-02  2.9216e-03  7.4881e-03  9.9253e-04  9.8186e-04  0:02:50  939
    62  5.1288e-03  1.7399e-02  2.8885e-03  7.4645e-03  9.7911e-04  9.3675e-04  0:05:24  938
    63  5.1675e-03  1.6792e-02  2.8345e-03  7.4709e-03  9.8451e-04  9.2281e-04  0:04:19  937
    64  5.2482e-03  1.6741e-02  2.7910e-03  7.5275e-03  1.0127e-03  9.4679e-04  0:03:27  936
    65  5.1557e-03  1.6576e-02  2.7371e-03  7.5840e-03  1.0214e-03  1.0377e-03  0:02:45  935
    66  5.2895e-03  1.5913e-02  2.6694e-03  7.5902e-03  1.0276e-03  1.2304e-03  0:02:12  934

  iter  continuity  x-velocity  y-velocity      energy           k       omega     time/iter
    67  5.4070e-03  1.5780e-02  2.6160e-03  7.6138e-03  1.0511e-03  1.2907e-03  0:04:52  933
    68  5.5081e-03  1.5133e-02  2.5504e-03  7.5660e-03  1.0698e-03  1.3865e-03  0:03:53  932
    69  5.5775e-03  1.5046e-02  2.4860e-03  7.5405e-03  1.1049e-03  1.5361e-03  0:03:07  931
    70  5.4175e-03  1.4553e-02  2.4216e-03  7.4811e-03  1.1331e-03  1.6680e-03  0:02:29  930
    71  5.2160e-03  1.4197e-02  2.3754e-03  7.4353e-03  1.1525e-03  1.7925e-03  0:01:59  929
    72  5.1601e-03  1.4172e-02  2.3396e-03  7.4346e-03  1.2096e-03  1.8942e-03  0:04:41  928
    73  4.9236e-03  1.3509e-02  2.2994e-03  7.4062e-03  1.2885e-03  1.7238e-03  0:03:44  927
    74  4.7602e-03  1.3124e-02  2.2619e-03  7.3999e-03  1.3700e-03  1.4888e-03  0:02:59  926
    75  4.6702e-03  1.2870e-02  2.2221e-03  7.3964e-03  1.4546e-03  1.2589e-03  0:02:23  925
    76  4.6111e-03  1.2511e-02  2.1685e-03  7.3763e-03  1.5718e-03  1.0640e-03  0:01:55  924
    77  4.5938e-03  1.2548e-02  2.1231e-03  7.3760e-03  1.6374e-03  9.1106e-04  0:04:36  923

  iter  continuity  x-velocity  y-velocity      energy           k       omega     time/iter
    78  4.5559e-03  1.1984e-02  2.0782e-03  7.3626e-03  1.7533e-03  7.8295e-04  0:03:41  922
    79  4.5276e-03  1.1634e-02  2.0169e-03  7.3127e-03  1.9243e-03  6.6157e-04  0:02:56  921
    80  4.5244e-03  1.1545e-02  1.9660e-03  7.2762e-03  2.0218e-03  5.7034e-04  0:02:21  920
    81  4.6868e-03  1.1251e-02  1.9323e-03  7.2284e-03  2.1667e-03  5.0156e-04  0:04:56  919
    82  4.5231e-03  1.1266e-02  1.9101e-03  7.2222e-03  2.2700e-03  4.4384e-04  0:03:57  918
    83  4.2514e-03  1.0572e-02  1.8768e-03  7.1937e-03  2.4201e-03  4.0011e-04  0:03:09  917
    84  4.0680e-03  1.0281e-02  1.8697e-03  7.1746e-03  2.6024e-03  3.6784e-04  0:02:31  916
    85  3.9592e-03  1.0531e-02  1.8648e-03  7.2099e-03  2.7596e-03  3.4634e-04  0:02:01  915
    86  3.8859e-03  9.9711e-03  1.8281e-03  7.1736e-03  2.9639e-03  3.3937e-04  0:01:37  914
    87  3.8407e-03  1.0146e-02  1.8046e-03  7.1766e-03  2.9306e-03  3.4894e-04  0:04:20  913
    88  3.8228e-03  1.0049e-02  1.7815e-03  7.1613e-03  2.5486e-03  3.6770e-04  0:03:28  912

  iter  continuity  x-velocity  y-velocity      energy           k       omega     time/iter
    89  3.8393e-03  9.5020e-03  1.7304e-03  7.1001e-03  2.2804e-03  3.8695e-04  0:02:46  911
    90  3.8139e-03  9.8158e-03  1.7016e-03  7.0801e-03  2.0761e-03  4.0417e-04  0:02:13  910
    91  3.7366e-03  9.8708e-03  1.6932e-03  7.0744e-03  1.8908e-03  4.1605e-04  0:01:46  909
    92  3.6813e-03  9.2736e-03  1.6676e-03  7.0464e-03  1.7126e-03  4.3086e-04  0:04:26  908
    93  3.6282e-03  9.0575e-03  1.6617e-03  7.0252e-03  1.5556e-03  4.4160e-04  0:03:33  907
    94  3.5844e-03  8.7597e-03  1.6598e-03  7.0373e-03  1.4526e-03  4.4163e-04  0:02:50  906
    95  3.5753e-03  8.8365e-03  1.6724e-03  7.0166e-03  1.3540e-03  4.4312e-04  0:02:16  905
    96  3.6153e-03  8.8064e-03  1.6663e-03  7.0200e-03  1.2839e-03  4.5218e-04  0:01:49  904
    97  3.6670e-03  8.5971e-03  1.6544e-03  7.0415e-03  1.2366e-03  4.5066e-04  0:01:27  903
    98  3.8504e-03  9.1147e-03  1.6464e-03  7.0435e-03  1.1928e-03  4.5615e-04  0:01:09  902
    99  4.0492e-03  8.5777e-03  1.6132e-03  6.9762e-03  1.1635e-03  4.6742e-04  0:03:56  901

  iter  continuity  x-velocity  y-velocity      energy           k       omega     time/iter
   100  3.9581e-03  9.0311e-03  1.6048e-03  6.9870e-03  1.1440e-03  4.6748e-04  0:03:08  900
   101  3.8504e-03  8.8853e-03  1.5941e-03  6.9835e-03  1.1143e-03  4.6286e-04  0:02:30  899
   102  3.7360e-03  8.5445e-03  1.5781e-03  6.9484e-03  1.0570e-03  4.5892e-04  0:02:00  898
   103  3.6164e-03  8.1601e-03  1.5697e-03  6.9285e-03  9.8235e-04  4.5693e-04  0:01:36  897
   104  3.6288e-03  8.3570e-03  1.5785e-03  6.9386e-03  9.4235e-04  4.5974e-04  0:01:17  896
   105  3.6351e-03  7.6810e-03  1.5758e-03  6.9269e-03  9.2580e-04  4.5964e-04  0:04:00  895
   106  3.6689e-03  8.1135e-03  1.5953e-03  6.9559e-03  9.0686e-04  4.5832e-04  0:03:12  894
   107  3.7230e-03  7.9919e-03  1.5952e-03  6.9331e-03  9.0291e-04  4.5550e-04  0:02:33  893
   108  3.8151e-03  8.1540e-03  1.5793e-03  6.9338e-03  8.9264e-04  4.5770e-04  0:02:03  892
   109  3.8521e-03  8.1127e-03  1.5476e-03  6.9444e-03  8.9301e-04  4.5805e-04  0:01:38  891
   110  3.9838e-03  8.4241e-03  1.5369e-03  6.9561e-03  8.9469e-04  4.5556e-04  0:04:16  890

  iter  continuity  x-velocity  y-velocity      energy           k       omega     time/iter
   111  4.0660e-03  8.1363e-03  1.5282e-03  6.9398e-03  9.0260e-04  4.4991e-04  0:03:25  889
   112  4.0348e-03  8.0154e-03  1.5245e-03  6.9080e-03  9.0492e-04  4.4438e-04  0:02:44  888
   113  3.9974e-03  7.8138e-03  1.5257e-03  6.8838e-03  9.0983e-04  4.4273e-04  0:02:11  887
   114  4.0113e-03  7.6575e-03  1.5302e-03  6.8790e-03  9.1517e-04  4.5194e-04  0:01:45  886
   115  4.0587e-03  7.5907e-03  1.5513e-03  6.8810e-03  9.2752e-04  4.5158e-04  0:01:24  885
   116  4.1616e-03  7.7378e-03  1.5788e-03  6.9214e-03  9.3714e-04  4.4597e-04  0:04:04  884
   117  4.1493e-03  7.9821e-03  1.5865e-03  6.9467e-03  9.3904e-04  4.4014e-04  0:03:15  883
   118  3.9595e-03  7.9635e-03  1.5650e-03  6.9379e-03  9.1979e-04  4.3695e-04  0:02:36  882
   119  4.0128e-03  7.9904e-03  1.5535e-03  6.9419e-03  9.2546e-04  4.3300e-04  0:02:04  881
   120  4.0689e-03  8.1674e-03  1.5510e-03  6.9464e-03  9.1159e-04  4.2357e-04  0:01:39  880
   121  3.9650e-03  7.9164e-03  1.5546e-03  6.9279e-03  9.3201e-04  4.0985e-04  0:04:15  879

  iter  continuity  x-velocity  y-velocity      energy           k       omega     time/iter
   122  3.9491e-03  8.0263e-03  1.5641e-03  6.8828e-03  9.3851e-04  4.0323e-04  0:03:24  878
   123  4.0645e-03  7.7060e-03  1.5744e-03  6.8449e-03  9.6356e-04  3.8997e-04  0:02:43  877
   124  4.0627e-03  7.7845e-03  1.5882e-03  6.8690e-03  1.0016e-03  3.9320e-04  0:02:10  876
   125  4.0329e-03  8.1544e-03  1.6202e-03  6.9341e-03  1.0077e-03  3.7464e-04  0:01:44  875
   126  4.0724e-03  8.3216e-03  2.3280e-03  6.9805e-03  1.0424e-03  3.6095e-04  0:01:23  874
   127  4.1269e-03  8.4044e-03  2.8820e-03  6.9980e-03  1.0907e-03  3.6492e-04  0:04:01  873
   128  4.0856e-03  8.6525e-03  2.8992e-03  7.0069e-03  1.1157e-03  3.5488e-04  0:03:13  872
   129  4.0853e-03  8.7447e-03  3.6743e-03  7.0257e-03  1.1642e-03  3.4557e-04  0:02:34  871
   130  4.1040e-03  8.0523e-03  3.6884e-03  6.9923e-03  1.2238e-03  3.3710e-04  0:02:03  870
   131  4.2084e-03  8.3240e-03  3.3746e-03  7.0082e-03  1.3189e-03  3.4266e-04  0:01:38  869
   132  4.2193e-03  8.0927e-03  3.2025e-03  7.0573e-03  1.3721e-03  3.2465e-04  0:01:19  868

  iter  continuity  x-velocity  y-velocity      energy           k       omega     time/iter
   133  4.1398e-03  8.4079e-03  4.2641e-03  7.1263e-03  1.4171e-03  3.3174e-04  0:03:56  867
   134  4.0328e-03  8.4083e-03  3.9353e-03  7.1926e-03  1.4930e-03  3.1492e-04  0:03:09  866
   135  4.0024e-03  8.2080e-03  4.0528e-03  7.1965e-03  1.5395e-03  3.1270e-04  0:02:31  865
   136  4.0399e-03  8.7001e-03  4.2066e-03  7.2156e-03  1.5834e-03  2.9755e-04  0:02:00  864
   137  4.0811e-03  8.0984e-03  4.3919e-03  7.0973e-03  1.6766e-03  2.9351e-04  0:01:36  863
   138  4.0992e-03  8.6761e-03  5.1358e-03  7.1673e-03  1.7880e-03  2.9186e-04  0:04:09  862
   139  4.0830e-03  8.2923e-03  4.5715e-03  7.1984e-03  1.9131e-03  2.8330e-04  0:03:19  861
   140  4.0576e-03  8.2706e-03  5.1236e-03  7.2966e-03  1.9751e-03  2.7887e-04  0:02:39  860
   141  4.0161e-03  7.7530e-03  5.0536e-03  7.3614e-03  2.0184e-03  2.6667e-04  0:02:07  859
   142  3.9552e-03  8.2679e-03  4.5863e-03  7.4116e-03  2.0155e-03  2.6024e-04  0:01:42  858
   143  4.0318e-03  8.4153e-03  4.4958e-03  7.3473e-03  1.9844e-03  2.4339e-04  0:04:13  857

  iter  continuity  x-velocity  y-velocity      energy           k       omega     time/iter
   144  4.1885e-03  8.2380e-03  4.4838e-03  7.3646e-03  1.9342e-03  2.4427e-04  0:03:22  856
   145  4.2054e-03  7.6349e-03  4.6137e-03  7.4100e-03  1.8821e-03  2.3321e-04  0:02:41  855
   146  4.2173e-03  7.9200e-03  4.9523e-03  7.4613e-03  1.8187e-03  2.2973e-04  0:02:09  854
   147  4.2622e-03  9.5723e-03  5.1161e-03  7.5599e-03  1.7241e-03  2.1471e-04  0:01:43  853
   148  4.1993e-03  8.2228e-03  5.3826e-03  7.5270e-03  1.6056e-03  2.0242e-04  0:04:13  852
   149  4.0941e-03  7.8561e-03  5.5066e-03  7.4899e-03  1.5086e-03  1.9976e-04  0:03:22  851
   150  3.8664e-03  8.6073e-03  5.4261e-03  7.4982e-03  1.4513e-03  1.8698e-04  0:02:41  850
   151  3.9311e-03  9.0006e-03  5.4656e-03  7.4967e-03  1.3922e-03  1.7487e-04  0:02:09  849
   152  3.9129e-03  8.7753e-03  5.2672e-03  7.5154e-03  1.3251e-03  1.7446e-04  0:04:33  848
   153  3.9201e-03  9.1385e-03  5.2797e-03  7.6262e-03  1.2160e-03  1.6680e-04  0:03:38  847
   154  3.8364e-03  8.7054e-03  5.2575e-03  7.5439e-03  1.1440e-03  1.7066e-04  0:02:54  846

  iter  continuity  x-velocity  y-velocity      energy           k       omega     time/iter
   155  3.6424e-03  8.8855e-03  5.3824e-03  7.4207e-03  1.0968e-03  1.5279e-04  0:02:19  845
   156  3.5422e-03  8.2460e-03  5.5544e-03  7.3359e-03  1.0399e-03  1.5186e-04  0:01:51  844
   157  3.5231e-03  8.4222e-03  5.6007e-03  7.3259e-03  9.7753e-04  1.4530e-04  0:04:17  843
   158  3.4813e-03  8.5904e-03  5.6270e-03  7.3770e-03  9.2572e-04  1.2678e-04  0:03:26  842
   159  3.4669e-03  8.4795e-03  5.7449e-03  7.4535e-03  8.7625e-04  1.2173e-04  0:02:44  841
   160  3.4823e-03  8.2666e-03  5.8621e-03  7.5156e-03  8.3557e-04  1.2179e-04  0:02:11  840
   161  3.5469e-03  8.1652e-03  5.8728e-03  7.6184e-03  7.9616e-04  1.2322e-04  0:01:45  839
   162  3.6291e-03  7.9118e-03  5.7248e-03  7.7393e-03  7.5641e-04  1.1764e-04  0:01:24  838
   163  3.7109e-03  8.2454e-03  5.9214e-03  7.8171e-03  7.2559e-04  1.1062e-04  0:03:54  837
   164  3.6769e-03  1.0059e-02  6.1733e-03  8.0031e-03  7.0758e-04  9.8708e-05  0:03:07  836
   165  3.6171e-03  8.7900e-03  5.7142e-03  8.0961e-03  7.0623e-04  1.0007e-04  0:02:30  835

  iter  continuity  x-velocity  y-velocity      energy           k       omega     time/iter
   166  3.5928e-03  8.2597e-03  5.5577e-03  8.0991e-03  7.0000e-04  9.7102e-05  0:02:00  834
   167  3.5456e-03  8.2348e-03  5.9036e-03  8.1102e-03  6.9424e-04  9.3963e-05  0:01:36  833
   168  3.5381e-03  8.3383e-03  6.3425e-03  8.1848e-03  7.0427e-04  8.6382e-05  0:01:16  832
   169  3.5968e-03  8.1854e-03  6.4586e-03  8.2238e-03  6.9649e-04  8.4900e-05  0:03:47  831
   170  3.5986e-03  8.2599e-03  6.6924e-03  8.2320e-03  6.9720e-04  8.7299e-05  0:03:02  830
   171  3.5996e-03  8.3204e-03  6.4380e-03  8.1941e-03  6.9166e-04  8.4072e-05  0:02:25  829
   172  3.7422e-03  8.6865e-03  6.4729e-03  8.2078e-03  6.8701e-04  8.0506e-05  0:01:56  828
   173  3.9438e-03  8.7048e-03  6.4478e-03  8.2642e-03  7.1512e-04  7.3366e-05  0:01:33  827
   174  4.0286e-03  8.5445e-03  6.5741e-03  8.2876e-03  7.2179e-04  7.3609e-05  0:01:14  826
   175  4.2493e-03  8.7029e-03  6.7556e-03  8.3752e-03  7.4318e-04  7.1808e-05  0:03:44  825
   176  4.4969e-03  8.7692e-03  6.6100e-03  8.4517e-03  7.7702e-04  6.9383e-05  0:02:59  824

  iter  continuity  x-velocity  y-velocity      energy           k       omega     time/iter
   177  4.6105e-03  9.3540e-03  7.5864e-03  8.5846e-03  8.0808e-04  6.6611e-05  0:02:23  823
   178  4.7870e-03  8.9975e-03  6.8206e-03  8.5364e-03  8.1161e-04  6.5103e-05  0:01:54  822
   179  5.0909e-03  8.5778e-03  7.3384e-03  8.5721e-03  8.4946e-04  6.5084e-05  0:01:31  821
   180  5.4091e-03  8.5326e-03  7.6748e-03  8.6705e-03  8.6088e-04  6.4158e-05  0:01:13  820
   181  5.3175e-03  9.9730e-03  8.0390e-03  8.7371e-03  9.0386e-04  6.2423e-05  0:03:42  819
   182  5.2714e-03  9.1893e-03  7.6048e-03  8.7430e-03  9.6514e-04  6.1238e-05  0:02:57  818
   183  5.1903e-03  9.5492e-03  7.5348e-03  8.7653e-03  9.7046e-04  6.0146e-05  0:02:22  817
   184  5.0650e-03  8.7580e-03  7.4137e-03  8.6999e-03  9.9896e-04  6.1070e-05  0:01:53  816
   185  4.8619e-03  1.1399e-02  9.2241e-03  8.7739e-03  1.1157e-03  6.1082e-05  0:01:31  815
   186  4.8052e-03  8.6187e-03  7.7822e-03  8.5240e-03  1.0987e-03  6.0927e-05  0:03:55  814
   187  4.7275e-03  8.3256e-03  7.5196e-03  8.5905e-03  1.1416e-03  6.1350e-05  0:03:08  813

  iter  continuity  x-velocity  y-velocity      energy           k       omega     time/iter
   188  4.7570e-03  8.8034e-03  7.4238e-03  8.8124e-03  1.1905e-03  6.0818e-05  0:02:30  812
   189  4.8682e-03  8.9686e-03  7.5897e-03  8.8022e-03  1.2601e-03  6.0637e-05  0:02:00  811
   190  4.6308e-03  8.0980e-03  7.7928e-03  8.6361e-03  1.2338e-03  6.0150e-05  0:01:36  810
   191  4.6752e-03  8.7857e-03  8.2231e-03  8.5802e-03  1.2308e-03  5.9559e-05  0:01:17  809
   192  4.8201e-03  8.9551e-03  8.2779e-03  8.6627e-03  1.3956e-03  5.9895e-05  0:03:43  808
   193  4.9330e-03  8.5413e-03  8.4723e-03  8.6378e-03  1.2771e-03  5.9139e-05  0:02:58  807
   194  4.9277e-03  8.3851e-03  8.1402e-03  8.6743e-03  1.2533e-03  5.8707e-05  0:02:22  806
   195  4.8791e-03  9.7354e-03  8.0595e-03  8.7441e-03  1.2868e-03  5.8154e-05  0:01:54  805
   196  4.8275e-03  9.7101e-03  8.0327e-03  8.7519e-03  1.3306e-03  5.6760e-05  0:01:31  804
   197  4.8998e-03  9.1180e-03  8.1885e-03  8.8021e-03  1.3379e-03  5.5772e-05  0:01:13  803
   198  4.8522e-03  8.7958e-03  8.1549e-03  8.7442e-03  1.2999e-03  5.4363e-05  0:03:38  802

  iter  continuity  x-velocity  y-velocity      energy           k       omega     time/iter
   199  4.8643e-03  9.0517e-03  8.0554e-03  8.6937e-03  1.2966e-03  5.3391e-05  0:02:54  801
   200  4.8914e-03  8.6143e-03  7.9087e-03  8.6363e-03  1.3402e-03  5.2704e-05  0:02:19  800
   201  4.8450e-03  8.4391e-03  8.3060e-03  8.6593e-03  1.3214e-03  5.1439e-05  0:01:51  799
   202  4.8869e-03  8.4090e-03  8.3833e-03  8.6484e-03  1.3932e-03  5.0469e-05  0:01:29  798
   203  4.9725e-03  7.9890e-03  7.9589e-03  8.6988e-03  1.3585e-03  4.9218e-05  0:01:11  797
   204  4.8797e-03  7.7506e-03  8.0011e-03  8.7324e-03  1.3233e-03  4.8199e-05  0:03:36  796
   205  4.8849e-03  8.1725e-03  8.2579e-03  8.7654e-03  1.2790e-03  4.6762e-05  0:02:53  795
   206  4.9362e-03  7.9587e-03  8.2898e-03  8.6700e-03  1.2697e-03  4.5873e-05  0:02:18  794
   207  5.0308e-03  7.9655e-03  8.4557e-03  8.6309e-03  1.1999e-03  4.4357e-05  0:01:50  793
   208  4.9374e-03  8.8508e-03  8.4977e-03  8.6764e-03  1.1861e-03  4.3766e-05  0:01:28  792
   209  4.9446e-03  8.6712e-03  8.3940e-03  8.7097e-03  1.2238e-03  4.2840e-05  0:03:49  791

  iter  continuity  x-velocity  y-velocity      energy           k       omega     time/iter
   210  5.0213e-03  8.3192e-03  8.4337e-03  8.7970e-03  1.1445e-03  4.1878e-05  0:03:03  790
   211  5.1520e-03  8.3645e-03  8.3191e-03  8.9447e-03  1.1312e-03  4.1142e-05  0:02:26  789
   212  5.2763e-03  8.3848e-03  8.1193e-03  9.0408e-03  1.1011e-03  4.0351e-05  0:01:57  788
   213  5.4223e-03  8.5892e-03  8.2834e-03  9.0212e-03  1.0551e-03  3.9635e-05  0:04:11  787
   214  5.3078e-03  8.9212e-03  8.2742e-03  9.0808e-03  1.0371e-03  3.8950e-05  0:03:20  786
   215  5.1888e-03  9.3941e-03  8.7459e-03  9.1844e-03  9.7808e-04  3.8352e-05  0:02:40  785
   216  5.2474e-03  8.7954e-03  8.7925e-03  9.2044e-03  9.0348e-04  3.7724e-05  0:04:45  784
   217  5.3624e-03  7.8878e-03  8.6921e-03  9.1739e-03  8.7398e-04  3.7201e-05  0:03:47  783
   218  5.5391e-03  7.9186e-03  8.9525e-03  9.2054e-03  8.3704e-04  3.6607e-05  0:03:02  782
   219  5.6920e-03  7.8738e-03  9.1410e-03  9.2977e-03  8.0151e-04  3.5928e-05  0:02:25  781
   220  5.4647e-03  8.0540e-03  9.0192e-03  9.4077e-03  7.8668e-04  3.5028e-05  0:01:56  780

  iter  continuity  x-velocity  y-velocity      energy           k       omega     time/iter
   221  5.5655e-03  9.0577e-03  8.8146e-03  9.5480e-03  7.6465e-04  3.5144e-05  0:04:08  779
   222  5.6931e-03  9.0936e-03  9.0392e-03  9.6483e-03  7.3927e-04  3.4525e-05  0:03:19  778
   223  5.5429e-03  8.7001e-03  9.0354e-03  9.7377e-03  7.2081e-04  3.4360e-05  0:02:39  777
   224  5.5149e-03  8.7798e-03  9.3828e-03  9.6794e-03  7.0149e-04  3.4020e-05  0:02:07  776
   225  5.6121e-03  9.0861e-03  9.4539e-03  9.6803e-03  6.8306e-04  3.3730e-05  0:01:41  775
   226  5.5534e-03  1.0060e-02  9.5800e-03  9.7995e-03  6.7627e-04  3.3687e-05  0:03:56  774
   227  5.5706e-03  7.9134e-03  9.2746e-03  9.8458e-03  6.6225e-04  3.3322e-05  0:03:08  773
   228  5.4259e-03  7.3769e-03  9.2275e-03  9.9262e-03  6.3404e-04  3.3384e-05  0:02:30  772
   229  5.3781e-03  7.2871e-03  9.6052e-03  9.9682e-03  6.2329e-04  3.3843e-05  0:02:00  771
   230  5.4533e-03  7.4866e-03  9.3476e-03  9.9999e-03  6.3075e-04  3.3750e-05  0:01:36  770
   231  5.5580e-03  8.1194e-03  8.9429e-03  9.9354e-03  6.2126e-04  3.3704e-05  0:01:17  769

  iter  continuity  x-velocity  y-velocity      energy           k       omega     time/iter
   232  5.5068e-03  8.5451e-03  8.8500e-03  9.8689e-03  6.1719e-04  3.4102e-05  0:03:35  768
   233  5.4616e-03  7.6899e-03  8.7131e-03  9.6923e-03  6.1350e-04  3.3752e-05  0:02:52  767
   234  5.4286e-03  7.6493e-03  8.9060e-03  9.5166e-03  6.3297e-04  3.4120e-05  0:02:17  766
   235  5.2066e-03  7.3607e-03  9.0261e-03  9.3798e-03  6.4362e-04  3.3896e-05  0:01:50  765
   236  5.2025e-03  8.7545e-03  9.4032e-03  9.3784e-03  6.6085e-04  3.3313e-05  0:01:28  764
   237  5.2543e-03  7.6569e-03  8.9721e-03  9.3322e-03  6.9173e-04  3.2528e-05  0:01:10  763
   238  5.1374e-03  7.4332e-03  8.9706e-03  9.3416e-03  7.2016e-04  3.1800e-05  0:03:28  762
   239  5.1427e-03  7.5169e-03  9.0696e-03  9.4227e-03  7.6955e-04  3.1041e-05  0:02:46  761
   240  5.2097e-03  7.9837e-03  9.3463e-03  9.4729e-03  8.0438e-04  3.0189e-05  0:02:13  760
   241  5.3894e-03  8.1898e-03  9.3819e-03  9.6297e-03  7.3112e-04  2.9155e-05  0:01:46  759
   242  5.4362e-03  7.7914e-03  9.0822e-03  9.7436e-03  6.7733e-04  2.8233e-05  0:01:25  758

  iter  continuity  x-velocity  y-velocity      energy           k       omega     time/iter
   243  5.4172e-03  7.7788e-03  9.2805e-03  9.8518e-03  6.7296e-04  2.7603e-05  0:03:39  757
   244  5.4529e-03  7.8728e-03  9.1040e-03  9.9224e-03  6.9419e-04  2.7024e-05  0:02:55  756
   245  5.5778e-03  8.2977e-03  9.2254e-03  9.9128e-03  7.4027e-04  2.6734e-05  0:02:20  755
   246  5.7835e-03  8.1334e-03  9.5274e-03  9.9320e-03  7.6055e-04  2.6886e-05  0:01:52  754
   247  5.7108e-03  8.4829e-03  9.6694e-03  9.9667e-03  7.9720e-04  2.6949e-05  0:04:00  753
   248  5.7067e-03  9.4054e-03  9.8079e-03  9.9858e-03  8.4575e-04  2.6931e-05  0:03:12  752
   249  5.7969e-03  9.2963e-03  9.8016e-03  9.9334e-03  7.5420e-04  2.6814e-05  0:02:33  751
   250  5.9700e-03  9.6074e-03  9.8857e-03  9.8830e-03  6.7885e-04  2.6851e-05  0:02:02  750
   251  6.0669e-03  8.7072e-03  9.9197e-03  9.8755e-03  6.5262e-04  2.5357e-05  0:01:38  749
   252  6.0012e-03  7.8775e-03  9.8031e-03  9.9835e-03  6.1959e-04  2.4896e-05  0:03:48  748
   253  6.1048e-03  8.0798e-03  1.0003e-02  1.0178e-02  6.2719e-04  2.5215e-05  0:03:02  747

  iter  continuity  x-velocity  y-velocity      energy           k       omega     time/iter
   254  6.2921e-03  8.2235e-03  1.0139e-02  1.0292e-02  6.6557e-04  2.5277e-05  0:02:25  746
   255  6.2463e-03  8.5269e-03  1.0132e-02  1.0270e-02  6.9696e-04  2.5238e-05  0:01:56  745
   256  6.1503e-03  8.4464e-03  1.0106e-02  1.0083e-02  6.9689e-04  2.5208e-05  0:01:33  744
   257  6.1725e-03  8.6481e-03  1.0193e-02  9.8147e-03  7.0465e-04  2.5222e-05  0:01:14  743
   258  6.2763e-03  8.8627e-03  1.0587e-02  9.6507e-03  7.3215e-04  2.5342e-05  0:03:28  742
   259  6.3449e-03  8.0276e-03  1.0347e-02  9.5703e-03  7.1487e-04  2.5407e-05  0:02:46  741
   260  6.1529e-03  7.4083e-03  1.0134e-02  9.5696e-03  6.6673e-04  2.5539e-05  0:02:13  740
   261  6.1301e-03  7.4810e-03  1.0181e-02  9.6545e-03  6.0710e-04  2.5696e-05  0:01:46  739
   262  6.2433e-03  8.1102e-03  1.0322e-02  9.8398e-03  5.8496e-04  2.6986e-05  0:01:25  738
   263  6.4387e-03  8.7026e-03  1.0549e-02  9.9901e-03  5.7189e-04  2.7084e-05  0:01:08  737
   264  6.5007e-03  8.0573e-03  1.0440e-02  1.0062e-02  5.7348e-04  2.7105e-05  0:03:21  736

  iter  continuity  x-velocity  y-velocity      energy           k       omega     time/iter
   265  6.4244e-03  8.7899e-03  1.0572e-02  1.0167e-02  5.8212e-04  2.6007e-05  0:02:41  735
   266  6.4609e-03  8.2005e-03  1.0427e-02  1.0250e-02  5.9067e-04  2.5513e-05  0:02:08  734
   267  6.5662e-03  7.9351e-03  1.0449e-02  1.0282e-02  5.8589e-04  2.5471e-05  0:01:43  733
   268  6.7525e-03  8.5113e-03  1.0499e-02  1.0360e-02  6.0155e-04  2.5420e-05  0:03:48  732
   269  6.9295e-03  8.2202e-03  1.0496e-02  1.0470e-02  6.2698e-04  2.5378e-05  0:03:02  731
   270  6.7312e-03  8.1193e-03  1.0422e-02  1.0451e-02  6.3980e-04  2.6663e-05  0:02:26  730
   271  6.6144e-03  8.3157e-03  1.0355e-02  1.0419e-02  6.2540e-04  2.6738e-05  0:01:56  729
   272  6.5931e-03  8.8970e-03  1.0315e-02  1.0411e-02  6.0858e-04  2.6724e-05  0:01:33  728
   273  6.6586e-03  9.8378e-03  1.0202e-02  1.0408e-02  6.2710e-04  2.6713e-05  0:03:40  727
   274  6.7997e-03  1.0500e-02  1.0237e-02  1.0353e-02  6.2394e-04  2.6699e-05  0:02:56  726
   275  6.9716e-03  9.9709e-03  1.0414e-02  1.0154e-02  5.8565e-04  2.6630e-05  0:02:20  725

  iter  continuity  x-velocity  y-velocity      energy           k       omega     time/iter
   276  6.7119e-03  9.0130e-03  1.0221e-02  1.0014e-02  5.5720e-04  2.6597e-05  0:01:52  724
   277  6.6083e-03  9.0691e-03  1.0101e-02  1.0024e-02  5.2786e-04  2.6521e-05  0:01:30  723
   278  6.6374e-03  8.8802e-03  1.0240e-02  1.0122e-02  5.0293e-04  2.6422e-05  0:03:36  722
   279  6.7355e-03  8.8979e-03  1.0418e-02  1.0216e-02  4.9218e-04  2.7227e-05  0:02:52  721
   280  6.9051e-03  9.2379e-03  1.0495e-02  1.0347e-02  4.9272e-04  2.6978e-05  0:02:18  720
   281  7.0956e-03  9.1039e-03  1.0317e-02  1.0380e-02  4.4868e-04  2.6544e-05  0:04:14  719
   282  6.8997e-03  9.1318e-03  1.0096e-02  1.0193e-02  4.2852e-04  2.5076e-05  0:03:23  718
   283  6.7936e-03  9.4210e-03  1.0090e-02  1.0069e-02  4.3478e-04  2.4700e-05  0:02:42  717
   284  6.7881e-03  9.7988e-03  1.0254e-02  1.0048e-02  4.4800e-04  2.4174e-05  0:02:09  716
   285  6.8555e-03  9.7080e-03  1.0310e-02  1.0066e-02  4.4833e-04  2.3339e-05  0:01:43  715
   286  6.9742e-03  9.8307e-03  1.0300e-02  1.0107e-02  4.4823e-04  2.2980e-05  0:03:45  714

  iter  continuity  x-velocity  y-velocity      energy           k       omega     time/iter
   287  7.1030e-03  9.8489e-03  1.0359e-02  1.0138e-02  4.5337e-04  2.3540e-05  0:03:00  713
   288  7.0113e-03  9.9343e-03  1.0392e-02  1.0230e-02  4.6074e-04  2.2989e-05  0:02:24  712
   289  6.8653e-03  9.9344e-03  1.0490e-02  1.0349e-02  4.6621e-04  2.2381e-05  0:01:55  711
   290  6.8101e-03  1.0120e-02  1.0603e-02  1.0413e-02  4.6920e-04  2.1913e-05  0:01:32  710
   291  6.8477e-03  1.0559e-02  1.0607e-02  1.0449e-02  4.5021e-04  2.1455e-05  0:03:35  709
   292  6.9316e-03  1.0113e-02  1.0632e-02  1.0438e-02  4.2623e-04  2.0935e-05  0:02:52  708
   293  7.0927e-03  1.0123e-02  1.0518e-02  1.0510e-02  4.1774e-04  2.0429e-05  0:02:17  707
   294  7.3025e-03  1.0192e-02  1.0425e-02  1.0557e-02  3.9869e-04  1.9951e-05  0:01:50  706
   295  7.2284e-03  1.0316e-02  1.0463e-02  1.0638e-02  3.9282e-04  1.9548e-05  0:01:28  705
   296  7.1392e-03  1.0397e-02  1.0503e-02  1.0703e-02  3.9563e-04  1.9247e-05  0:01:10  704
   297  7.1074e-03  1.0619e-02  1.0591e-02  1.0734e-02  4.0031e-04  1.8937e-05  0:03:17  703

  iter  continuity  x-velocity  y-velocity      energy           k       omega     time/iter
   298  7.1110e-03  1.0772e-02  1.0537e-02  1.0695e-02  4.0587e-04  1.8693e-05  0:02:37  702
   299  7.1442e-03  1.1142e-02  1.0426e-02  1.0624e-02  4.0826e-04  1.8444e-05  0:02:05  701
   300  7.2068e-03  1.0964e-02  1.0463e-02  1.0565e-02  3.9745e-04  1.8206e-05  0:01:40  700
   301  7.3375e-03  1.0623e-02  1.0665e-02  1.0597e-02  3.8863e-04  1.7988e-05  0:01:20  699
   302  7.3792e-03  1.1374e-02  1.0783e-02  1.0658e-02  3.8429e-04  1.7820e-05  0:01:04  698
   303  7.2111e-03  1.1120e-02  1.0721e-02  1.0655e-02  3.7694e-04  1.7661e-05  0:03:10  697
   304  7.1158e-03  1.0524e-02  1.0542e-02  1.0587e-02  3.7066e-04  1.7537e-05  0:02:32  696
   305  7.1161e-03  1.0324e-02  1.0332e-02  1.0578e-02  3.7468e-04  1.7472e-05  0:02:02  695
   306  7.1701e-03  1.0328e-02  1.0096e-02  1.0581e-02  3.9032e-04  1.7343e-05  0:01:37  694
   307  7.2502e-03  1.0431e-02  9.9435e-03  1.0570e-02  4.0681e-04  1.7249e-05  0:01:18  693
   308  7.3408e-03  1.0609e-02  9.9744e-03  1.0574e-02  4.1404e-04  1.6984e-05  0:01:02  692

  iter  continuity  x-velocity  y-velocity      energy           k       omega     time/iter
   309  7.4564e-03  1.0786e-02  1.0148e-02  1.0618e-02  4.1368e-04  1.6993e-05  0:03:08  691
   310  7.5849e-03  1.0997e-02  1.0340e-02  1.0681e-02  4.0279e-04  1.7088e-05  0:02:30  690
   311  7.5147e-03  1.1368e-02  1.0620e-02  1.0777e-02  3.9326e-04  1.7123e-05  0:02:00  689
   312  7.4334e-03  1.1687e-02  1.0782e-02  1.0859e-02  4.0541e-04  1.7168e-05  0:01:36  688
   313  7.3932e-03  1.1752e-02  1.0891e-02  1.0939e-02  4.4558e-04  1.7176e-05  0:01:16  687
   314  7.3769e-03  1.1898e-02  1.0923e-02  1.0953e-02  5.0102e-04  1.7122e-05  0:01:01  686
   315  7.3718e-03  1.2101e-02  1.0811e-02  1.0923e-02  5.3783e-04  1.7072e-05  0:03:06  685
   316  7.3774e-03  1.2280e-02  1.0776e-02  1.0890e-02  5.6318e-04  1.6993e-05  0:02:28  684
   317  7.3869e-03  1.2349e-02  1.0750e-02  1.0869e-02  5.4285e-04  1.7079e-05  0:01:59  683
   318  7.3858e-03  1.2482e-02  1.0728e-02  1.0852e-02  5.1079e-04  1.7078e-05  0:01:35  682
   319  7.3721e-03  1.2683e-02  1.0740e-02  1.0838e-02  4.7721e-04  1.7029e-05  0:01:16  681

  iter  continuity  x-velocity  y-velocity      energy           k       omega     time/iter
   320  7.3632e-03  1.2820e-02  1.0673e-02  1.0829e-02  4.5181e-04  1.7031e-05  0:01:00  680
   321  7.3710e-03  1.2981e-02  1.0615e-02  1.0872e-02  4.5337e-04  1.7005e-05  0:03:04  679
   322  7.4153e-03  1.3127e-02  1.0610e-02  1.1005e-02  4.8193e-04  1.7076e-05  0:02:27  678
   323  7.4541e-03  1.3184e-02  1.0653e-02  1.1065e-02  5.2477e-04  1.7038e-05  0:01:57  677
   324  7.4953e-03  1.3414e-02  1.0594e-02  1.1047e-02  5.7719e-04  1.7064e-05  0:01:34  676
   325  7.5357e-03  1.3679e-02  1.0549e-02  1.1093e-02  6.0092e-04  1.7158e-05  0:01:15  675
   326  7.5540e-03  1.3802e-02  1.0569e-02  1.1133e-02  6.3976e-04  1.7326e-05  0:01:00  674
   327  7.5568e-03  1.3935e-02  1.0702e-02  1.1165e-02  7.1548e-04  1.7382e-05  0:03:02  673
   328  7.5475e-03  1.4137e-02  1.0812e-02  1.1200e-02  7.7108e-04  1.7376e-05  0:02:26  672
   329  7.5348e-03  1.4205e-02  1.0946e-02  1.1185e-02  8.0763e-04  1.7353e-05  0:01:56  671
   330  7.5656e-03  1.4245e-02  1.1183e-02  1.1221e-02  7.1403e-04  1.7459e-05  0:01:33  670

  iter  continuity  x-velocity  y-velocity      energy           k       omega     time/iter
   331  7.6361e-03  1.4200e-02  1.1124e-02  1.1295e-02  6.2628e-04  1.7559e-05  0:01:14  669
   332  7.6971e-03  1.4185e-02  1.0993e-02  1.1355e-02  5.6823e-04  1.7588e-05  0:00:59  668
   333  7.7538e-03  1.4304e-02  1.0892e-02  1.1404e-02  5.3097e-04  1.7627e-05  0:03:01  667
   334  7.8066e-03  1.4520e-02  1.0810e-02  1.1449e-02  5.0915e-04  1.7746e-05  0:02:24  666
   335  7.7366e-03  1.4841e-02  1.0709e-02  1.1439e-02  5.0330e-04  1.7810e-05  0:01:55  665
   336  7.6433e-03  1.4650e-02  1.0618e-02  1.1435e-02  4.7021e-04  1.7950e-05  0:01:32  664
   337  7.5828e-03  1.4751e-02  1.0523e-02  1.1210e-02  4.3798e-04  1.8020e-05  0:01:14  663
   338  7.5511e-03  1.5215e-02  1.0724e-02  1.1058e-02  4.1952e-04  1.8035e-05  0:00:59  662
   339  7.5314e-03  1.5166e-02  1.0497e-02  1.0884e-02  4.1136e-04  1.8120e-05  0:02:59  661
   340  7.5629e-03  1.4872e-02  1.0464e-02  1.0769e-02  3.9605e-04  1.8255e-05  0:02:23  660
   341  7.5513e-03  1.4877e-02  1.0513e-02  1.0698e-02  3.8374e-04  1.8386e-05  0:01:54  659

  iter  continuity  x-velocity  y-velocity      energy           k       omega     time/iter
   342  7.5018e-03  1.4982e-02  1.0552e-02  1.0682e-02  3.7899e-04  1.8550e-05  0:01:31  658
   343  7.4965e-03  1.4972e-02  1.0602e-02  1.0691e-02  3.7029e-04  1.8725e-05  0:01:13  657
   344  7.5220e-03  1.5012e-02  1.0591e-02  1.0719e-02  3.5440e-04  1.8927e-05  0:00:58  656
   345  7.5781e-03  1.5203e-02  1.0626e-02  1.0785e-02  3.3716e-04  1.9108e-05  0:02:58  655
   346  7.5311e-03  1.5332e-02  1.0672e-02  1.0843e-02  3.2183e-04  1.9375e-05  0:02:22  654
   347  7.4381e-03  1.5449e-02  1.0720e-02  1.0886e-02  3.1119e-04  1.9579e-05  0:01:53  653
   348  7.3533e-03  1.5431e-02  1.0734e-02  1.0925e-02  3.0404e-04  1.9817e-05  0:01:30  652
   349  7.3080e-03  1.5377e-02  1.0713e-02  1.0986e-02  3.0060e-04  2.0040e-05  0:03:22  651
   350  7.3050e-03  1.5326e-02  1.0622e-02  1.1074e-02  2.9979e-04  2.0260e-05  0:02:42  650
   351  7.3452e-03  1.5310e-02  1.0573e-02  1.1175e-02  3.0119e-04  2.0476e-05  0:02:09  649
   352  7.3914e-03  1.5228e-02  1.0630e-02  1.1261e-02  3.0422e-04  2.0711e-05  0:01:43  648

  iter  continuity  x-velocity  y-velocity      energy           k       omega     time/iter
   353  7.3362e-03  1.5184e-02  1.0770e-02  1.1277e-02  3.0862e-04  2.0876e-05  0:01:22  647
   354  7.3173e-03  1.5228e-02  1.0868e-02  1.1321e-02  3.1399e-04  2.1071e-05  0:01:06  646
   355  7.3386e-03  1.5278e-02  1.0909e-02  1.1371e-02  3.2004e-04  2.1264e-05  0:03:02  645
   356  7.3974e-03  1.5360e-02  1.0892e-02  1.1460e-02  3.2436e-04  2.1448e-05  0:02:25  644
   357  7.4869e-03  1.5387e-02  1.0867e-02  1.1562e-02  3.2832e-04  2.1612e-05  0:01:56  643
   358  7.5823e-03  1.5356e-02  1.0907e-02  1.1622e-02  3.3360e-04  2.1767e-05  0:01:33  642
   359  7.6383e-03  1.5300e-02  1.0906e-02  1.1653e-02  3.3892e-04  2.1899e-05  0:01:14  641
   360  7.5863e-03  1.5256e-02  1.0838e-02  1.1573e-02  3.4382e-04  2.2020e-05  0:00:59  640
   361  7.4942e-03  1.5252e-02  1.0898e-02  1.1530e-02  3.4926e-04  2.2159e-05  0:02:55  639
   362  7.4089e-03  1.5377e-02  1.1096e-02  1.1525e-02  3.5662e-04  2.2203e-05  0:02:20  638
   363  7.3094e-03  1.5495e-02  1.1260e-02  1.1497e-02  3.6707e-04  2.2229e-05  0:01:52  637

  iter  continuity  x-velocity  y-velocity      energy           k       omega     time/iter
   364  7.2230e-03  1.5506e-02  1.1230e-02  1.1417e-02  3.7139e-04  2.2239e-05  0:01:29  636
   365  7.1735e-03  1.5515e-02  1.1182e-02  1.1402e-02  3.7598e-04  2.2226e-05  0:01:11  635
   366  7.1274e-03  1.5392e-02  1.1149e-02  1.1364e-02  3.8488e-04  2.2267e-05  0:00:57  634
   367  7.0639e-03  1.5373e-02  1.1119e-02  1.1317e-02  3.8298e-04  2.2345e-05  0:02:52  633
   368  7.0272e-03  1.5376e-02  1.1016e-02  1.1291e-02  3.7345e-04  2.2407e-05  0:02:17  632
   369  6.9880e-03  1.5620e-02  1.1154e-02  1.1291e-02  3.6612e-04  2.2518e-05  0:01:50  631
   370  6.9351e-03  1.5304e-02  1.1043e-02  1.1296e-02  3.5705e-04  2.2657e-05  0:01:28  630
   371  6.9062e-03  1.5287e-02  1.1042e-02  1.1263e-02  3.4999e-04  2.2782e-05  0:03:16  629
   372  6.8540e-03  1.5323e-02  1.1095e-02  1.1315e-02  3.3467e-04  2.2968e-05  0:02:36  628
   373  6.8040e-03  1.5331e-02  1.1155e-02  1.1424e-02  3.2915e-04  2.3142e-05  0:02:05  627
   374  6.7723e-03  1.5438e-02  1.1286e-02  1.1585e-02  3.2587e-04  2.3262e-05  0:01:40  626

  iter  continuity  x-velocity  y-velocity      energy           k       omega     time/iter
   375  6.7314e-03  1.5421e-02  1.1343e-02  1.1674e-02  3.2385e-04  2.3243e-05  0:01:20  625
   376  6.6816e-03  1.5318e-02  1.1385e-02  1.1767e-02  3.2127e-04  2.3404e-05  0:01:04  624
   377  6.6381e-03  1.5246e-02  1.1524e-02  1.1879e-02  3.1576e-04  2.3536e-05  0:02:55  623
   378  6.6046e-03  1.5126e-02  1.1705e-02  1.1941e-02  3.0716e-04  2.3754e-05  0:02:20  622
   379  6.5587e-03  1.5050e-02  1.1812e-02  1.1922e-02  2.9945e-04  2.3944e-05  0:01:52  621
   380  6.5108e-03  1.5011e-02  1.1862e-02  1.1857e-02  2.9317e-04  2.4135e-05  0:01:29  620
   381  6.4737e-03  1.4971e-02  1.1796e-02  1.1806e-02  2.8849e-04  2.4425e-05  0:01:11  619
   382  6.4567e-03  1.4991e-02  1.1732e-02  1.1795e-02  2.8451e-04  2.4715e-05  0:03:01  618
   383  6.4495e-03  1.5108e-02  1.1651e-02  1.1795e-02  2.7984e-04  2.4887e-05  0:02:24  617
   384  6.4412e-03  1.5160e-02  1.1607e-02  1.1791e-02  2.8037e-04  2.5087e-05  0:01:55  616
   385  6.4547e-03  1.5257e-02  1.1579e-02  1.1799e-02  2.7811e-04  2.5322e-05  0:01:32  615

  iter  continuity  x-velocity  y-velocity      energy           k       omega     time/iter
   386  6.5094e-03  1.5290e-02  1.1557e-02  1.1849e-02  2.7583e-04  2.5503e-05  0:03:16  614
   387  6.5487e-03  1.5308e-02  1.1507e-02  1.1860e-02  2.7441e-04  2.5716e-05  0:02:37  613
   388  6.5092e-03  1.5374e-02  1.1533e-02  1.1838e-02  2.7280e-04  2.5908e-05  0:02:05  612
   389  6.4088e-03  1.5497e-02  1.1592e-02  1.1818e-02  2.7085e-04  2.6058e-05  0:01:40  611
   390  6.3824e-03  1.5648e-02  1.1620e-02  1.1799e-02  2.6838e-04  2.6190e-05  0:01:20  610
   391  6.4231e-03  1.5771e-02  1.1601e-02  1.1768e-02  2.6616e-04  2.6443e-05  0:01:04  609
   392  6.3891e-03  1.5889e-02  1.1648e-02  1.1825e-02  2.6454e-04  2.6603e-05  0:02:53  608
   393  6.3943e-03  1.5996e-02  1.1721e-02  1.1772e-02  2.6317e-04  2.6655e-05  0:02:18  607
   394  6.4924e-03  1.6033e-02  1.1723e-02  1.1738e-02  2.6299e-04  2.6677e-05  0:01:50  606
[...]
(cx-gui-do cx-set-list-tree-selections "NavigationPane*Frame2*Table1*List_Tree2" (list "Setup|Reference Frames|global"))
(cx-gui-do cx-activate-item "NavigationPane*Frame2*Table1*List_Tree2")
(cx-gui-do cx-set-list-tree-selections "NavigationPane*Frame2*Table1*List_Tree2" (list "Setup|Reference Frames|global"))
(cx-gui-do cx-activate-item "ToolBar*Object Selection/Display*toolbar_clear_selection")
(cx-gui-do cx-activate-item "ToolBar*Object Selection/Display*toolbar_clear_selection")
(cx-gui-do cx-activate-item "ToolBar*Pointer*translate")
(cx-use-window-id 51)
(dolly-camera -0.00209744 0.00761771 0)
(cx-use-window-id 51)
(dolly-camera 0.0121759 -0.0919216 0)
(cx-use-window-id 51)
(dolly-camera -0.194412 -0.117699 0)
(cx-gui-do cx-activate-item "MenuBar*WriteSubMenu*Case & Data...")
(cx-gui-do cx-set-file-dialog-entries "Select File" '( "FFF.cas.h5") "CFF Case/Data Files (*.cas.h5 *.dat.h5 )")
(cx-gui-do cx-activate-item "Question*OK")

Writing to ClouDsBlade14:"C:/Users/cvest/Claudio/Oxford/3rd Year/B3/CubeSat_project/Claudio/Aerothermal/CFD/2d Sim/No Refinement/With new many axes/Isothermal Rees Conditions/First refinement/45 degrees/FFF.cas.h5" in NODE0 mode and compression level 1 ...
Grouping cells for Laplace smoothing ...
       49000 cells,     2 zones ...
       82391 faces,     4 zones ...
       33079 nodes,     1 zone  ...
  Done.
Done.

Writing to ClouDsBlade14:"C:/Users/cvest/Claudio/Oxford/3rd Year/B3/CubeSat_project/Claudio/Aerothermal/CFD/2d Sim/No Refinement/With new many axes/Isothermal Rees Conditions/First refinement/45 degrees/FFF.dat.h5" in NODE0 mode and compression level 1 ...
  Writing results.
Done.
(cx-gui-do cx-set-list-tree-selections "NavigationPane*Frame2*Table1*List_Tree2" (list "Results|Graphics|Contours"))
(cx-gui-do cx-set-list-tree-selections "NavigationPane*Frame2*Table1*List_Tree2" (list "Results|Graphics|Contours"))
(cx-gui-do cx-activate-item "NavigationPane*Frame2*Table1*List_Tree2")
(cx-gui-do cx-set-list-tree-selections "NavigationPane*Frame2*Table1*List_Tree2" (list "Results|Graphics|Contours"))
(cx-gui-do cx-set-list-tree-selections "NavigationPane*Frame2*Table1*List_Tree2" (list "Results|Graphics|Contours|schlieren"))
(cx-gui-do cx-set-list-tree-selections "NavigationPane*Frame2*Table1*List_Tree2" (list "Results|Graphics|Contours|schlieren"))
(cx-gui-do cx-activate-item "NavigationPane*Frame2*Table1*List_Tree2")
(cx-gui-do cx-set-list-tree-selections "NavigationPane*Frame2*Table1*List_Tree2" (list "Results|Graphics|Contours|schlieren"))
(cx-gui-do cx-activate-item "Contours*PanelButtons*PushButton1(OK)")
(cx-gui-do cx-activate-item "ToolBar*Visibility*axes")
(cx-gui-do cx-activate-item "ToolBar*Visibility*axes")
(cx-gui-do cx-activate-item "ToolBar*Visibility*titles")
(cx-gui-do cx-activate-item "ToolBar*Visibility*ruler")
(cx-gui-do cx-activate-item "ToolBar*Visibility*ruler")
(cx-gui-do cx-activate-item "ToolBar*Visibility*ruler")
(cx-gui-do cx-activate-item "ToolBar*Object Selection/Display*toolbar_clear_selection")
(cx-gui-do cx-activate-item "ToolBar*Visibility*axes")
(cx-gui-do cx-activate-item "ToolBar*Object Selection/Display*toolbar_show")
(cx-gui-do cx-activate-item "ToolBar*Object Selection/Display*toolbar_hide")
(cx-use-window-id 51)
(cxg-clear-all-selections (cx-active-window))
(cxg-add-surfaces-to-selection '(surface_body) (cx-active-window))
(cx-use-window-id 51)
(cxg-clear-all-selections (cx-active-window))
(cxg-add-surfaces-to-selection '(surface_body) (cx-active-window))
(cx-use-window-id 51)
(cxg-clear-all-selections (cx-active-window))
(cxg-add-surfaces-to-selection '(surface_body) (cx-active-window))
(cx-gui-do cx-activate-item "Contours*PanelButtons*PushButton1(OK)")
(cxg-clear-all-selections (cx-active-window))
(cxg-add-surfaces-to-selection '() (cx-active-window))
(cx-gui-do cx-activate-item "Contours*PanelButtons*PushButton2(Cancel)")
(cx-gui-do cx-set-list-tree-selections "NavigationPane*Frame2*Table1*List_Tree2" (list "Setup|Reference Frames|rotated-frame"))
(cx-gui-do cx-set-list-tree-selections "NavigationPane*Frame2*Table1*List_Tree2" (list "Setup|Reference Frames|rotated-frame"))
(cx-gui-do cx-list-tree-right-click "NavigationPane*Frame2*Table1*List_Tree2" )
(cx-gui-do cx-activate-item "MenuBar*PopupMenuTree-rotated-frame*Hide")
(cx-gui-do cx-activate-item "ToolBar*Visibility*titles")
(cx-use-window-id 51)
(dolly-camera -0.0250401 0.227051 0)
(cx-use-window-id 51)
(dolly-camera 0.0547917 -0.0991905 0)
(cx-use-window-id 51)
(dolly-camera -0.0670304 0.0585115 0)
(cx-use-window-id 51)
(dolly-camera 0.0440278 0.0252395 0)
(cx-use-window-id 51)
(dolly-camera -0.0121722 -0.00288528 0)
(cx-gui-do cx-activate-item "ToolBar*Copy*savepicture")
(cx-gui-do cx-set-list-selections "Save Picture*Table1*Frame3*Frame1*Frame3(Resolution)*Table1*DropDownList3(Select Resolution)" '( 0))
(cx-gui-do cx-activate-item "Save Picture*Table1*Frame3*Frame1*Frame3(Resolution)*Table1*DropDownList3(Select Resolution)")
(cx-gui-do cx-set-integer-entry "Save Picture*Table1*Frame3*Frame1*Frame3(Resolution)*Table1*IntegerEntry5(Width)" 2160)
(cx-gui-do cx-activate-item "Save Picture*Table1*Frame3*Frame1*Frame3(Resolution)*Table1*IntegerEntry5(Width)")
(cx-gui-do cx-activate-item "Save Picture*PanelButtons*PushButton1(OK)")
(cx-gui-do cx-set-file-dialog-entries "Select File" '( "C:/Users/cvest/Claudio/Oxford/3rd Year/B3/CubeSat_project/Claudio/Aerothermal/Pictures/For Report/Finalised/schlieren_square_45.png") "Hardcopy Files (*.png)")
(cx-gui-do cx-activate-item "ToolBar*Copy*savepicture")
(cx-gui-do cx-activate-item "Save Picture*PanelButtons*PushButton1(OK)")
(cx-gui-do cx-set-file-dialog-entries "Select File" '( "schlieren_square_45.png") "Hardcopy Files (*.png)")
(cx-gui-do cx-activate-item "Question*OK")
(cx-gui-do cx-set-list-tree-selections "NavigationPane*Frame2*Table1*List_Tree2" (list "Results|Graphics|Contours|mach"))
(cx-gui-do cx-set-list-tree-selections "NavigationPane*Frame2*Table1*List_Tree2" (list "Results|Graphics|Contours|mach"))
(cx-gui-do cx-activate-item "NavigationPane*Frame2*Table1*List_Tree2")
(cx-gui-do cx-set-list-tree-selections "NavigationPane*Frame2*Table1*List_Tree2" (list "Results|Graphics|Contours|mach"))
(cx-gui-do cx-activate-item "Contours*PanelButtons*PushButton1(OK)")
(cx-gui-do cx-set-toggle-button2 "Contours*Table1*Frame1*ToggleBox1(Options)*CheckButton9(Draw Mesh)" #t)
(cx-gui-do cx-activate-item "Contours*Table1*Frame1*ToggleBox1(Options)*CheckButton9(Draw Mesh)")
(cx-gui-do cx-set-toggle-button2 "Mesh Display*Table1*Frame1*Frame1*ToggleBox1(Options)*CheckButton3(Faces)" #t)
(cx-gui-do cx-activate-item "Mesh Display*Table1*Frame1*Frame1*ToggleBox1(Options)*CheckButton3(Faces)")
(cx-gui-do cx-activate-item "Mesh Display*PanelButtons*PushButton2(Cancel)")
(cx-gui-do cx-activate-item "Contours*PanelButtons*PushButton1(OK)")
(cx-gui-do cx-set-integer-entry "Save Picture*Table1*Frame3*Frame1*Frame3(Resolution)*Table1*IntegerEntry5(Width)" 2159)
(cx-gui-do cx-activate-item "Save Picture*Table1*Frame3*Frame1*Frame3(Resolution)*Table1*IntegerEntry5(Width)")
(cx-gui-do cx-set-integer-entry "Save Picture*Table1*Frame3*Frame1*Frame3(Resolution)*Table1*IntegerEntry5(Width)" 4000)
(cx-gui-do cx-activate-item "Save Picture*Table1*Frame3*Frame1*Frame3(Resolution)*Table1*IntegerEntry5(Width)")
(cx-gui-do cx-set-integer-entry "Save Picture*Table1*Frame3*Frame1*Frame3(Resolution)*Table1*IntegerEntry6(Height)" 4000)
(cx-gui-do cx-activate-item "Save Picture*Table1*Frame3*Frame1*Frame3(Resolution)*Table1*IntegerEntry6(Height)")
(cx-gui-do cx-activate-item "Save Picture*PanelButtons*PushButton1(OK)")
(cx-gui-do cx-set-file-dialog-entries "Select File" '( "C:/Users/cvest/Claudio/Oxford/3rd Year/B3/CubeSat_project/Claudio/Aerothermal/Pictures/For Report/Finalised/45 incidence/mach_square_45.png") "Hardcopy Files (*.png)")
(cx-gui-do cx-set-list-tree-selections "NavigationPane*Frame2*Table1*List_Tree2" (list "Results|Graphics|Contours|temperature"))
(cx-gui-do cx-set-list-tree-selections "NavigationPane*Frame2*Table1*List_Tree2" (list "Results|Graphics|Contours|temperature"))
(cx-gui-do cx-activate-item "NavigationPane*Frame2*Table1*List_Tree2")
(cx-gui-do cx-set-list-tree-selections "NavigationPane*Frame2*Table1*List_Tree2" (list "Results|Graphics|Contours|temperature"))
(cx-gui-do cx-activate-item "Contours*PanelButtons*PushButton1(OK)")
(cx-gui-do cx-set-toggle-button2 "Contours*Table1*Frame1*ToggleBox1(Options)*CheckButton9(Draw Mesh)" #t)
(cx-gui-do cx-activate-item "Contours*Table1*Frame1*ToggleBox1(Options)*CheckButton9(Draw Mesh)")
(cx-gui-do cx-activate-item "Mesh Display*PanelButtons*PushButton1(OK)")
(cx-gui-do cx-activate-item "Contours*PanelButtons*PushButton1(OK)")
(cx-gui-do cx-activate-item "Save Picture*PanelButtons*PushButton1(OK)")
(cx-gui-do cx-set-file-dialog-entries "Select File" '( "temperature_square_45.png") "Hardcopy Files (*.png)")
(cx-gui-do cx-set-list-tree-selections "NavigationPane*Frame2*Table1*List_Tree2" (list "Results|Graphics|Contours|pressure"))
(cx-gui-do cx-set-list-tree-selections "NavigationPane*Frame2*Table1*List_Tree2" (list "Results|Graphics|Contours|pressure"))
(cx-gui-do cx-activate-item "NavigationPane*Frame2*Table1*List_Tree2")
(cx-gui-do cx-set-list-tree-selections "NavigationPane*Frame2*Table1*List_Tree2" (list "Results|Graphics|Contours|pressure"))
(cx-gui-do cx-set-toggle-button2 "Contours*Table1*Frame1*ToggleBox1(Options)*CheckButton9(Draw Mesh)" #t)
(cx-gui-do cx-activate-item "Contours*Table1*Frame1*ToggleBox1(Options)*CheckButton9(Draw Mesh)")
(cx-gui-do cx-activate-item "Mesh Display*PanelButtons*PushButton2(Cancel)")
(cx-gui-do cx-activate-item "Contours*PanelButtons*PushButton1(OK)")
(cx-gui-do cx-activate-item "Save Picture*PanelButtons*PushButton1(OK)")
(cx-gui-do cx-set-file-dialog-entries "Select File" '( "pressure_square_45.png") "Hardcopy Files (*.png)")
(cx-gui-do cx-activate-item "Contours*Table1*Frame1*PushButton5(Colormap Options)")
(cx-gui-do cx-set-list-selections "Colormap*Table1*Frame4(Labels)*Frame4(Font)*DropDownList2(Font Behavior)" '( 0))
(cx-gui-do cx-activate-item "Colormap*Table1*Frame4(Labels)*Frame4(Font)*DropDownList2(Font Behavior)")
(cx-gui-do cx-set-real-entry-list "Colormap*Table1*Frame4(Labels)*Frame4(Font)*RealEntry4(Font Size)" '( 0.04))
(cx-gui-do cx-activate-item "Colormap*PanelButtons*PushButton1(OK)")
(cx-gui-do cx-activate-item "ToolBar*Copy*savepicture")
(cx-gui-do cx-activate-item "Save Picture*PanelButtons*PushButton1(OK)")
(cx-gui-do cx-set-file-dialog-entries "Select File" '( "pressure_square_45.png") "Hardcopy Files (*.png)")
(cx-gui-do cx-activate-item "Question*OK")
(cx-gui-do cx-activate-item "Ribbon*Frame1*Frame7(View)*Table1*Table3(Graphics)*PushButton1(Lights)")
(cx-gui-do cx-set-toggle-button2 "Lights*Frame1*CheckButton2(Light On)" #f)
(cx-gui-do cx-activate-item "Lights*Frame1*CheckButton2(Light On)")
(cx-gui-do cx-activate-item "Lights*PanelButtons*PushButton2(Close)")
(cx-gui-do cx-activate-item "Ribbon*Frame1*Frame7(View)*Table1*Table3(Graphics)*PushButton1(Lights)")
(cx-gui-do cx-set-list-selections "Lights*DropDownList11(Headlight On)" '( 1))
(cx-gui-do cx-activate-item "Lights*DropDownList11(Headlight On)")
(cx-gui-do cx-set-toggle-button2 "Lights*Frame1*CheckButton2(Light On)" #f)
(cx-gui-do cx-activate-item "Lights*Frame1*CheckButton2(Light On)")
(cx-gui-do cx-activate-item "Colormap*PanelButtons*PushButton1(OK)")
(cx-gui-do cx-activate-item "Colormap*PanelButtons*PushButton2(Cancel)")
(cx-gui-do cx-activate-item "Contours*PanelButtons*PushButton1(OK)")
(cx-gui-do cx-set-list-selections "Lights*DropDownList11(Headlight On)" '( 2))
(cx-gui-do cx-activate-item "Lights*DropDownList11(Headlight On)")
(cx-gui-do cx-activate-item "Contours*PanelButtons*PushButton1(OK)")
(cx-gui-do cx-set-list-selections "Lights*DropDownList11(Headlight On)" '( 1))
(cx-gui-do cx-activate-item "Lights*DropDownList11(Headlight On)")
(cx-gui-do cx-activate-item "Contours*PanelButtons*PushButton1(OK)")
(cx-gui-do cx-set-toggle-button2 "Lights*Frame1*CheckButton2(Light On)" #t)
(cx-gui-do cx-activate-item "Lights*Frame1*CheckButton2(Light On)")
(cx-gui-do cx-activate-item "Contours*PanelButtons*PushButton1(OK)")
(cx-gui-do cx-activate-item "Lights*PanelButtons*PushButton2(Close)")
(cx-gui-do cx-set-toggle-button2 "Ribbon*Frame1*Frame7(View)*Table1*Table3(Display)*CheckButton7(Lighting)" #f)
(cx-gui-do cx-activate-item "Ribbon*Frame1*Frame7(View)*Table1*Table3(Display)*CheckButton7(Lighting)")
(cx-gui-do cx-activate-item "Contours*PanelButtons*PushButton1(OK)")
(cx-gui-do cx-activate-item "Contours*Table1*Frame3*Frame2*Table3(Display State)*PushButton2(Use Active)")
(cx-gui-do cx-activate-item "Contours*PanelButtons*PushButton1(OK)")
(cx-gui-do cx-activate-item "ToolBar*Copy*savepicture")
(cx-gui-do cx-activate-item "Save Picture*PanelButtons*PushButton1(OK)")
(cx-gui-do cx-set-file-dialog-entries "Select File" '( "pressure_square_45.png") "Hardcopy Files (*.png)")
(cx-gui-do cx-activate-item "Question*OK")
(cx-gui-do cx-set-list-tree-selections "NavigationPane*Frame2*Table1*List_Tree2" (list "Results|Graphics|Contours|mach"))
(cx-gui-do cx-set-list-tree-selections "NavigationPane*Frame2*Table1*List_Tree2" (list "Results|Graphics|Contours|mach"))
(cx-gui-do cx-activate-item "NavigationPane*Frame2*Table1*List_Tree2")
(cx-gui-do cx-set-list-tree-selections "NavigationPane*Frame2*Table1*List_Tree2" (list "Results|Graphics|Contours|mach"))
(cx-gui-do cx-set-toggle-button2 "Contours*Table1*Frame1*ToggleBox1(Options)*CheckButton9(Draw Mesh)" #t)
(cx-gui-do cx-activate-item "Contours*Table1*Frame1*ToggleBox1(Options)*CheckButton9(Draw Mesh)")
(cx-gui-do cx-activate-item "Mesh Display*PanelButtons*PushButton1(OK)")
(cx-gui-do cx-activate-item "Mesh Display*PanelButtons*PushButton2(Cancel)")
(cx-gui-do cx-activate-item "Contours*PanelButtons*PushButton1(OK)")
(cx-gui-do cx-activate-item "ToolBar*Copy*savepicture")
(cx-gui-do cx-activate-item "Save Picture*PanelButtons*PushButton1(OK)")
(cx-gui-do cx-set-file-dialog-entries "Select File" '( "mach_square_45.png") "Hardcopy Files (*.png)")
(cx-gui-do cx-activate-item "Question*OK")
(cx-gui-do cx-set-list-tree-selections "NavigationPane*Frame2*Table1*List_Tree2" (list "Results|Graphics|Contours|pressure"))
(cx-gui-do cx-set-list-tree-selections "NavigationPane*Frame2*Table1*List_Tree2" (list "Results|Graphics|Contours|pressure"))
(cx-gui-do cx-activate-item "NavigationPane*Frame2*Table1*List_Tree2")
(cx-gui-do cx-set-list-tree-selections "NavigationPane*Frame2*Table1*List_Tree2" (list "Results|Graphics|Contours|pressure"))
(cx-gui-do cx-activate-item "Contours*PanelButtons*PushButton1(OK)")
(cx-gui-do cx-set-toggle-button2 "Contours*Table1*Frame1*ToggleBox1(Options)*CheckButton9(Draw Mesh)" #t)
(cx-gui-do cx-activate-item "Contours*Table1*Frame1*ToggleBox1(Options)*CheckButton9(Draw Mesh)")
(cx-gui-do cx-activate-item "Mesh Display*PanelButtons*PushButton2(Cancel)")
(cx-gui-do cx-activate-item "Contours*PanelButtons*PushButton1(OK)")
(cx-gui-do cx-activate-item "ToolBar*Copy*savepicture")
(cx-gui-do cx-activate-item "ToolBar*Copy*savepicture")
(cx-gui-do cx-activate-item "Save Picture*PanelButtons*PushButton1(OK)")
(cx-gui-do cx-set-file-dialog-entries "Select File" '( "pressure_square_45.png") "Hardcopy Files (*.png)")
(cx-gui-do cx-activate-item "Question*OK")
(cx-gui-do cx-set-list-tree-selections "NavigationPane*Frame2*Table1*List_Tree2" (list "Results|Graphics|Contours|temperature"))
(cx-gui-do cx-set-list-tree-selections "NavigationPane*Frame2*Table1*List_Tree2" (list "Results|Graphics|Contours|temperature"))
(cx-gui-do cx-activate-item "NavigationPane*Frame2*Table1*List_Tree2")
(cx-gui-do cx-set-list-tree-selections "NavigationPane*Frame2*Table1*List_Tree2" (list "Results|Graphics|Contours|temperature"))
(cx-gui-do cx-set-toggle-button2 "Contours*Table1*Frame1*ToggleBox1(Options)*CheckButton9(Draw Mesh)" #t)
(cx-gui-do cx-activate-item "Contours*Table1*Frame1*ToggleBox1(Options)*CheckButton9(Draw Mesh)")
(cx-gui-do cx-activate-item "Mesh Display*PanelButtons*PushButton2(Cancel)")
(cx-gui-do cx-activate-item "Contours*PanelButtons*PushButton1(OK)")
(cx-gui-do cx-activate-item "ToolBar*Copy*savepicture")
(cx-gui-do cx-activate-item "Save Picture*PanelButtons*PushButton1(OK)")
(cx-gui-do cx-set-file-dialog-entries "Select File" '( "temperature_square_45.png") "Hardcopy Files (*.png)")
(cx-gui-do cx-activate-item "Question*OK")
(cx-gui-do cx-activate-item "MenuBar*WriteSubMenu*Case & Data...")
(cx-gui-do cx-set-file-dialog-entries "Select File" '( "FFF.cas.h5") "CFF Case/Data Files (*.cas.h5 *.dat.h5 )")
(cx-gui-do cx-activate-item "Question*OK")

Writing to ClouDsBlade14:"C:/Users/cvest/Claudio/Oxford/3rd Year/B3/CubeSat_project/Claudio/Aerothermal/CFD/2d Sim/No Refinement/With new many axes/Isothermal Rees Conditions/First refinement/45 degrees/FFF.cas.h5" in NODE0 mode and compression level 1 ...
Grouping cells for Laplace smoothing ...
       49000 cells,     2 zones ...
       82391 faces,     4 zones ...
       33079 nodes,     1 zone  ...
  Done.
Done.

Writing to ClouDsBlade14:"C:/Users/cvest/Claudio/Oxford/3rd Year/B3/CubeSat_project/Claudio/Aerothermal/CFD/2d Sim/No Refinement/With new many axes/Isothermal Rees Conditions/First refinement/45 degrees/FFF.dat.h5" in NODE0 mode and compression level 1 ...
  Writing results.
Done.
(cx-gui-do cx-set-list-tree-selections "NavigationPane*Frame2*Table1*List_Tree2" (list "Results|Plots|XY Plot|wall_stanton"))
(cx-gui-do cx-set-list-tree-selections "NavigationPane*Frame2*Table1*List_Tree2" (list "Results|Plots|Histogram"))
(cx-gui-do cx-set-list-tree-selections "NavigationPane*Frame2*Table1*List_Tree2" (list "Results|Plots|Histogram"))
(cx-gui-do cx-set-list-tree-selections "NavigationPane*Frame2*Table1*List_Tree2" (list "Results|Plots|XY Plot|temperature_comparison_plot"))
(cx-gui-do cx-set-list-tree-selections "NavigationPane*Frame2*Table1*List_Tree2" (list "Results|Plots|XY Plot|temperature_comparison_plot"))
(cx-gui-do cx-set-list-tree-selections "NavigationPane*Frame2*Table1*List_Tree2" (list "Results|Plots|XY Plot|temperature_comparison_plot"))
(cx-gui-do cx-set-list-tree-selections "NavigationPane*Frame2*Table1*List_Tree2" (list "Results|Plots|XY Plot|temperature_comparison_plot"))
(cx-gui-do cx-activate-item "NavigationPane*Frame2*Table1*List_Tree2")
(cx-gui-do cx-set-list-tree-selections "NavigationPane*Frame2*Table1*List_Tree2" (list "Results|Plots|XY Plot|temperature_comparison_plot"))
(cx-gui-do cx-activate-item "Solution XY Plot*PanelButtons*PushButton1(OK)")
(cx-gui-do cx-set-list-tree-selections "NavigationPane*Frame2*Table1*List_Tree2" (list "Results|Plots|XY Plot|front_bl_determination"))
(cx-gui-do cx-set-list-tree-selections "NavigationPane*Frame2*Table1*List_Tree2" (list "Results|Plots|XY Plot|front_bl_determination"))
(cx-gui-do cx-activate-item "NavigationPane*Frame2*Table1*List_Tree2")
(cx-gui-do cx-set-list-tree-selections "NavigationPane*Frame2*Table1*List_Tree2" (list "Results|Plots|XY Plot|front_bl_determination"))
(cx-gui-do cx-activate-item "Solution XY Plot*PanelButtons*PushButton1(OK)")
(cx-gui-do cx-set-list-tree-selections "NavigationPane*Frame2*Table1*List_Tree2" (list "Results|Plots|XY Plot|mach_across_shock"))
(cx-gui-do cx-set-list-tree-selections "NavigationPane*Frame2*Table1*List_Tree2" (list "Results|Plots|XY Plot|mach_across_shock"))
(cx-gui-do cx-activate-item "NavigationPane*Frame2*Table1*List_Tree2")
(cx-gui-do cx-set-list-tree-selections "NavigationPane*Frame2*Table1*List_Tree2" (list "Results|Plots|XY Plot|mach_across_shock"))
(cx-gui-do cx-activate-item "Solution XY Plot*PanelButtons*PushButton1(OK)")
(cx-gui-do cx-activate-item "Solution XY Plot*PanelButtons*PushButton2(Cancel)")
/exit y

Posting ANSYS Product Improvement Program performance data 
Done.
Auto-Transcript Stop Time:  20:18:00, 17 Apr 2025 GMT Daylight Time 
Total Transcript Time: 12 Hour 3 Minute 30 Second.
