Auto-Transcript Start Time:  17:39:52, 08 Mar 2025 GMT Standard Time 
Current Directory: "C:\Users\cvest\Claudio\Oxford\3rd Year\B3\CubeSat_project\Claudio\Aerothermal\CFD"

              Welcome to ANSYS Fluent 2024 R2

              Copyright 1987-2024 ANSYS, Inc. All Rights Reserved.
              Unauthorized use, distribution or duplication is prohibited.
              This product is subject to U.S. laws governing export and re-export.
              For full Legal Notice, see documentation.

Build Time: May 13 2024 11:21:01 EST  Build Id: 10192  
 
Connected License Server List:	<Shared_Web_License_Server>

     --------------------------------------------------------------
     This is a student version of ANSYS FLUENT. Usage of this product
     license is limited to the terms and conditions specified in your ANSYS
     license form, additional terms section.
     --------------------------------------------------------------
Host spawning Node 0 on machine "ClouDsBlade14" (win64).

-----------------------------------------------------------------------------------------
ID    Hostname       Core  O.S.         PID    Vendor                                   
-----------------------------------------------------------------------------------------
n3    ClouDsBlade14  4/16  Windows-x64  17212  AMD Ryzen 9 5900HX with Radeon Graphics  
n2    ClouDsBlade14  3/16  Windows-x64  34328  AMD Ryzen 9 5900HX with Radeon Graphics  
n1    ClouDsBlade14  2/16  Windows-x64  40776  AMD Ryzen 9 5900HX with Radeon Graphics  
n0*   ClouDsBlade14  1/16  Windows-x64  24456  AMD Ryzen 9 5900HX with Radeon Graphics  
host  ClouDsBlade14        Windows-x64  10060  AMD Ryzen 9 5900HX with Radeon Graphics  

MPI Option Selected: intel
Selected system interconnect: default
-----------------------------------------------------------------------------------------

Cleanup script file is C:\\Users\\cvest\\Claudio\\Oxford\\3rd Year\\B3\\CubeSat_project\\Claudio\\Aerothermal\\CFD\\cleanup-fluent-ClouDsBlade14-10060.bat

Posting ANSYS Product Improvement Program startup data
Done.
Fast-loading "C:\PROGRA~1\ANSYSI~1\ANSYSS~1\v242\fluent\fluent24.2.0\\addons\afd\lib\hdfio.bin"
Done.
Multicore SMT processors detected. Processor affinity set!

Reading from ClouDsBlade14:"C:\Users\cvest\Claudio\Oxford\3rd Year\B3\CubeSat_project\Claudio\Aerothermal\CFD\Square.cas.h5" in NODE0 mode ...
  Reading mesh ...
Warning: reading 2 partition grid onto 4 compute node machine.
         will auto partition.
      676787 cells,     2 cell zones ...
         675659 mixed cells,  zone id: 6
           1128 tetrahedral cells,  zone id: 5
     1368270 faces,     9 face zones ...
            336 mixed wall faces,  zone id: 4
            336 mixed wall faces,  zone id: 15
        1339142 mixed interior faces,  zone id: 1
           2088 triangular interior faces,  zone id: 2
           1886 triangular velocity-inlet faces,  zone id: 7
          21948 triangular wall faces,  zone id: 8
           1862 triangular pressure-outlet faces,  zone id: 9
            336 triangular interface faces,  zone id: 10
            336 triangular interface faces,  zone id: 11
      120654 nodes,     1 node zone  ...
  Done.


Building...
     mesh
	auto partitioning mesh by Metis (fast, Laplace, model-weighted),
	distributing mesh
		pairs....,
		parts....,
		faces....,
		nodes....,
		shadow nodes....,
		cells....,
        bandwidth reduction using Reverse Cuthill-McKee: 161661/3008 = 53.7437
     materials,
     interface,
     domains,
	mixture
     zones,
	zone_fs_6-ri_b6bd71d8_88cd_4a35_ab95_1be5f87a2efd_fs_-trg
	zone_fs_5-ri_b6bd71d8_88cd_4a35_ab95_1be5f87a2efd_fs_-src
	wall_zone3
	interior-solid_zone0
	interior-fluid_zone1
	zone2
	zone4
	zone_fs_5-ri_b6bd71d8_88cd_4a35_ab95_1be5f87a2efd_fs_-src-non-overlapping
	zone_fs_6-ri_b6bd71d8_88cd_4a35_ab95_1be5f87a2efd_fs_-trg-non-overlapping
	ri_b6bd71d8_88cd_4a35_ab95_1be5f87a2efd_fs_-wall1-1-1
	ri_b6bd71d8_88cd_4a35_ab95_1be5f87a2efd_fs_-wall1-1-1-shadow
	fluid_zone1
	solid_zone0
     mesh interfaces,
     parallel,

Info: At least one many-to-many mesh interface is found in the case file. Such mesh interfaces will not be available in a future release of Fluent. It is recommended to convert to the current default one-to-one mesh interfaces with the following text command:
/define/mesh-interfaces/one-to-one-pairing? yes

The automatic selection for flux type has changed to Rhie-Chow: momentum based.

Done.

> (cx-gui-do cx-activate-item "Information*OK")
(cx-gui-do cx-activate-item "Color Theme Change*Table1*PushButton5(adl_dark)")
(cx-gui-do cx-activate-item "Color Theme Change*PanelButtons*PushButton1(OK)")
(cx-gui-do cx-set-toggle-button2 "Key Behavioral Changes*Table1*CheckButton2(Don't show this message again)" #t)
(cx-gui-do cx-activate-item "Key Behavioral Changes*Table1*CheckButton2(Don't show this message again)")
(cx-gui-do cx-activate-item "Key Behavioral Changes*PanelButtons*PushButton1(OK)")
(cx-gui-do cx-activate-item "Ribbon*Frame1*Frame2(Domain)*Table1*Table3(Mesh)*PushButton1(Display)")
(cx-gui-do cx-set-list-selections "Mesh Display*Table1*Frame3*Frame1*List1(Surfaces)" '( 1 2 3 4 5 6 7 8 9 10))
(cx-gui-do cx-activate-item "Mesh Display*Table1*Frame3*Frame1*List1(Surfaces)")
(cx-gui-do cx-set-list-selections "Mesh Display*Table1*Frame3*Frame1*List1(Surfaces)" '( 2 3 4 5 6 7 8 9 10))
(cx-gui-do cx-activate-item "Mesh Display*Table1*Frame3*Frame1*List1(Surfaces)")
(cx-gui-do cx-activate-item "Mesh Display*PanelButtons*PushButton1(OK)")
Note: zone-surface: cannot create surface from sliding interface zone.
Creating empty surface.
Note: zone-surface: cannot create surface from sliding interface zone.
Creating empty surface.
Note: zone-surface: cannot create surface from sliding interface zone.
Creating empty surface.
Note: zone-surface: cannot create surface from sliding interface zone.
Creating empty surface.
(cx-use-window-id 51)
(cx-set-camera-relative '(-0.565131 -0.826531 -0.835727) '(0 0 0) '(-0.826602 -0.437304 -0.0112825) 0 0)
(cx-use-window-id 51)
(cx-set-camera-relative '(0.586235 1.29222 0.722677) '(0 0 0) '(0.0710351 0.0267573 -0.27454) 0 0)
(cx-gui-do cx-set-list-selections "Mesh Display*Table1*Frame3*Frame1*List1(Surfaces)" '( 3 4 5 6 7 8 9 10))
(cx-gui-do cx-activate-item "Mesh Display*Table1*Frame3*Frame1*List1(Surfaces)")
(cx-gui-do cx-set-list-selections "Mesh Display*Table1*Frame3*Frame1*List1(Surfaces)" '( 4 5 6 7 8 9 10))
(cx-gui-do cx-activate-item "Mesh Display*Table1*Frame3*Frame1*List1(Surfaces)")
(cx-gui-do cx-activate-item "Mesh Display*PanelButtons*PushButton1(OK)")
(cx-gui-do cx-set-list-selections "Mesh Display*Table1*Frame3*Frame1*List1(Surfaces)" '( 4 5 6 7 8 9))
(cx-gui-do cx-activate-item "Mesh Display*Table1*Frame3*Frame1*List1(Surfaces)")
(cx-gui-do cx-set-list-selections "Mesh Display*Table1*Frame3*Frame1*List1(Surfaces)" '( 4 5 6 7 8))
(cx-gui-do cx-activate-item "Mesh Display*Table1*Frame3*Frame1*List1(Surfaces)")
(cx-gui-do cx-set-list-selections "Mesh Display*Table1*Frame3*Frame1*List1(Surfaces)" '( 4 5 6 8))
(cx-gui-do cx-activate-item "Mesh Display*Table1*Frame3*Frame1*List1(Surfaces)")
(cx-gui-do cx-set-list-selections "Mesh Display*Table1*Frame3*Frame1*List1(Surfaces)" '( 4 5 6))
(cx-gui-do cx-activate-item "Mesh Display*Table1*Frame3*Frame1*List1(Surfaces)")
(cx-gui-do cx-activate-item "Mesh Display*PanelButtons*PushButton1(OK)")
(cx-use-window-id 51)
(cx-set-camera-relative '(-0.361202 -0.0722417 -0.0298738) '(0 0 0) '(0.0444416 -0.0943314 -0.213367) 0 0)
(cx-gui-do cx-set-list-selections "Mesh Display*Table1*Frame3*Frame1*List1(Surfaces)" '( 5 6))
(cx-gui-do cx-activate-item "Mesh Display*Table1*Frame3*Frame1*List1(Surfaces)")
(cx-gui-do cx-activate-item "Mesh Display*PanelButtons*PushButton1(OK)")
(cx-gui-do cx-set-list-selections "Mesh Display*Table1*Frame3*Frame1*List1(Surfaces)" '( 5))
(cx-gui-do cx-activate-item "Mesh Display*Table1*Frame3*Frame1*List1(Surfaces)")
(cx-gui-do cx-set-list-selections "Mesh Display*Table1*Frame3*Frame1*List1(Surfaces)" '())
(cx-gui-do cx-activate-item "Mesh Display*Table1*Frame3*Frame1*List1(Surfaces)")
(cx-gui-do cx-activate-item "Mesh Display*PanelButtons*PushButton1(OK)")
(cx-gui-do cx-set-list-selections "Mesh Display*Table1*Frame3*Frame1*List1(Surfaces)" '( 2))
(cx-gui-do cx-activate-item "Mesh Display*Table1*Frame3*Frame1*List1(Surfaces)")
(cx-gui-do cx-activate-item "Mesh Display*PanelButtons*PushButton1(OK)")
(cx-gui-do cx-activate-item "Mesh Display*PanelButtons*PushButton1(OK)")
(cx-gui-do cx-set-list-selections "Mesh Display*Table1*Frame3*Frame1*List1(Surfaces)" '( 2 4))
(cx-gui-do cx-activate-item "Mesh Display*Table1*Frame3*Frame1*List1(Surfaces)")
(cx-gui-do cx-set-list-selections "Mesh Display*Table1*Frame3*Frame1*List1(Surfaces)" '( 2 3 4))
(cx-gui-do cx-activate-item "Mesh Display*Table1*Frame3*Frame1*List1(Surfaces)")
(cx-gui-do cx-set-list-selections "Mesh Display*Table1*Frame3*Frame1*List1(Surfaces)" '( 2 3))
(cx-gui-do cx-activate-item "Mesh Display*Table1*Frame3*Frame1*List1(Surfaces)")
(cx-gui-do cx-activate-item "Mesh Display*PanelButtons*PushButton1(OK)")
(cx-gui-do cx-set-list-selections "Mesh Display*Table1*Frame3*Frame1*List1(Surfaces)" '( 2 3 9))
(cx-gui-do cx-activate-item "Mesh Display*Table1*Frame3*Frame1*List1(Surfaces)")
(cx-gui-do cx-activate-item "Mesh Display*PanelButtons*PushButton1(OK)")
(cx-gui-do cx-set-list-selections "Mesh Display*Table1*Frame3*Frame1*List1(Surfaces)" '( 2 3 7 9))
(cx-gui-do cx-activate-item "Mesh Display*Table1*Frame3*Frame1*List1(Surfaces)")
(cx-gui-do cx-set-list-selections "Mesh Display*Table1*Frame3*Frame1*List1(Surfaces)" '( 2 3 9))
(cx-gui-do cx-activate-item "Mesh Display*Table1*Frame3*Frame1*List1(Surfaces)")
(cx-gui-do cx-set-list-selections "Mesh Display*Table1*Frame3*Frame1*List1(Surfaces)" '( 2 3 8 9))
(cx-gui-do cx-activate-item "Mesh Display*Table1*Frame3*Frame1*List1(Surfaces)")
(cx-gui-do cx-activate-item "Mesh Display*PanelButtons*PushButton1(OK)")
(cx-gui-do cx-activate-item "Mesh Display*PanelButtons*PushButton1(OK)")
(cx-gui-do cx-set-list-selections "Mesh Display*Table1*Frame3*Frame1*List1(Surfaces)" '( 2 8 9))
(cx-gui-do cx-activate-item "Mesh Display*Table1*Frame3*Frame1*List1(Surfaces)")
(cx-gui-do cx-set-list-selections "Mesh Display*Table1*Frame3*Frame1*List1(Surfaces)" '( 8 9))
(cx-gui-do cx-activate-item "Mesh Display*Table1*Frame3*Frame1*List1(Surfaces)")
(cx-gui-do cx-set-list-selections "Mesh Display*Table1*Frame3*Frame1*List1(Surfaces)" '( 8 9 10))
(cx-gui-do cx-activate-item "Mesh Display*Table1*Frame3*Frame1*List1(Surfaces)")
(cx-gui-do cx-activate-item "Mesh Display*PanelButtons*PushButton1(OK)")
(cx-use-window-id 51)
(cx-set-camera-relative '(-0.250697 -0.217449 -0.0650349) '(0 0 0) '(0.0499107 -0.0249912 -0.0854548) 0 0)
(cx-use-window-id 51)
(cx-set-camera-relative '(-0.235505 -0.169364 -0.21572) '(0 0 0) '(0.145051 -0.0111887 -0.138534) 0 0)
(cx-use-window-id 51)
(cx-set-camera-relative '(0.204984 -0.44998 0.0791028) '(0 0 0) '(-0.269321 -0.0189096 0.287943) 0 0)
(cx-use-window-id 51)
(cx-set-camera-relative '(0.0109462 0.118105 0.0734404) '(0 0 0) '(0.00476319 -0.00531715 -0.0137041) 0 0)
(cx-gui-do cx-activate-item "Mesh Display*PanelButtons*PushButton2(Cancel)")
(cx-gui-do cx-set-list-tree-selections "NavigationPane*Frame2*Table1*List_Tree2" (list "Setup|General"))
(cx-gui-do cx-set-list-tree-selections "NavigationPane*Frame2*Table1*List_Tree2" (list "Setup|Models"))
(cx-gui-do cx-set-list-tree-selections "NavigationPane*Frame2*Table1*List_Tree2" (list "Setup|Materials"))
(cx-gui-do cx-set-list-tree-selections "NavigationPane*Frame2*Table1*List_Tree2" (list "Setup|Materials"))
(cx-gui-do cx-set-list-tree-selections "NavigationPane*Frame2*Table1*List_Tree2" (list "Setup|Materials"))
(cx-gui-do cx-activate-item "NavigationPane*Frame2*Table1*List_Tree2")
(cx-gui-do cx-set-list-tree-selections "NavigationPane*Frame2*Table1*List_Tree2" (list "Setup|Materials"))
(cx-gui-do cx-set-list-tree-selections "NavigationPane*Frame2*Table1*List_Tree2" (list "Setup|Materials|Fluid"))
(cx-gui-do cx-set-list-tree-selections "NavigationPane*Frame2*Table1*List_Tree2" (list "Setup|Materials|Fluid"))
(cx-gui-do cx-activate-item "NavigationPane*Frame2*Table1*List_Tree2")
(cx-gui-do cx-set-list-tree-selections "NavigationPane*Frame2*Table1*List_Tree2" (list "Setup|Materials|Fluid"))
(cx-gui-do cx-set-list-tree-selections "NavigationPane*Frame2*Table1*List_Tree2" (list "Setup|Materials|Fluid|materialassignment_ddd4adab_c51c_4e01_bad9_dcc4c11b6c9b"))
(cx-gui-do cx-set-list-tree-selections "NavigationPane*Frame2*Table1*List_Tree2" (list "Setup|Materials|Fluid|materialassignment_ddd4adab_c51c_4e01_bad9_dcc4c11b6c9b"))
(cx-gui-do cx-set-list-tree-selections "NavigationPane*Frame2*Table1*List_Tree2" (list "Setup|Dynamic Mesh"))
(cx-gui-do cx-set-list-tree-selections "NavigationPane*Frame2*Table1*List_Tree2" (list "Setup|Dynamic Mesh"))
(cx-gui-do cx-set-list-tree-selections "NavigationPane*Frame2*Table1*List_Tree2" (list "Setup|Dynamic Mesh"))
(cx-gui-do cx-activate-item "NavigationPane*Frame2*Table1*List_Tree2")
(cx-gui-do cx-set-list-tree-selections "NavigationPane*Frame2*Table1*List_Tree2" (list "Setup|Dynamic Mesh"))
(cx-gui-do cx-set-toggle-button2 "Dynamic Mesh*Table1*Table1*CheckButton1(Dynamic Mesh)" #t)
(cx-gui-do cx-activate-item "Dynamic Mesh*Table1*Table1*CheckButton1(Dynamic Mesh)")
(cx-gui-do cx-set-toggle-button2 "Dynamic Mesh*Table1*Table1*Table2*Table3*Table1(Mesh Methods)*CheckButton3(Remeshing)" #t)
(cx-gui-do cx-activate-item "Dynamic Mesh*Table1*Table1*Table2*Table3*Table1(Mesh Methods)*CheckButton3(Remeshing)")

     prism and sizing settings,(cx-gui-do cx-set-list-tree-selections "NavigationPane*Frame2*Table1*List_Tree2" (list "Results|Surfaces"))
(cx-gui-do cx-set-list-tree-selections "NavigationPane*Frame2*Table1*List_Tree2" (list "Results|Plots"))
(cx-gui-do cx-set-list-tree-selections "NavigationPane*Frame2*Table1*List_Tree2" (list "Results|Animations"))
(cx-gui-do cx-set-list-tree-selections "NavigationPane*Frame2*Table1*List_Tree2" (list "Results|Animations|Playback"))
(cx-gui-do cx-set-list-tree-selections "NavigationPane*Frame2*Table1*List_Tree2" (list "Results|Animations|Playback"))
(cx-gui-do cx-activate-item "NavigationPane*Frame2*Table1*List_Tree2")
(cx-gui-do cx-set-list-tree-selections "NavigationPane*Frame2*Table1*List_Tree2" (list "Results|Animations|Playback"))
(cx-gui-do cx-activate-item "Playback*PanelButtons*PushButton2(Close)")
(cx-gui-do cx-set-list-tree-selections "NavigationPane*Frame2*Table1*List_Tree2" (list "Results|Plots"))
(cx-gui-do cx-set-list-tree-selections "NavigationPane*Frame2*Table1*List_Tree2" (list "Solution|Run Calculation"))
(cx-gui-do cx-set-list-tree-selections "NavigationPane*Frame2*Table1*List_Tree2" (list "Solution|Run Calculation"))
(cx-gui-do cx-set-list-tree-selections "NavigationPane*Frame2*Table1*List_Tree2" (list "Solution|Run Calculation"))
(cx-gui-do cx-activate-item "NavigationPane*Frame2*Table1*List_Tree2")
(cx-gui-do cx-set-list-tree-selections "NavigationPane*Frame2*Table1*List_Tree2" (list "Solution|Run Calculation"))
(cx-gui-do cx-set-integer-entry "Run Calculation*Table1*Table3(Parameters)*Table1*Table1*IntegerEntry1(Number of Iterations)" 500)
(cx-gui-do cx-activate-item "Run Calculation*Table1*Table3(Parameters)*Table1*Table1*IntegerEntry1(Number of Iterations)")
(cx-gui-do cx-set-list-tree-selections "NavigationPane*Frame2*Table1*List_Tree2" (list "Setup|Boundary Conditions|Inlet"))
(cx-gui-do cx-set-list-tree-selections "NavigationPane*Frame2*Table1*List_Tree2" (list "Setup|Boundary Conditions|Inlet"))
(cx-gui-do cx-set-list-tree-selections "NavigationPane*Frame2*Table1*List_Tree2" (list "Solution|Initialization"))
(cx-gui-do cx-set-list-tree-selections "NavigationPane*Frame2*Table1*List_Tree2" (list "Solution|Initialization"))
(cx-gui-do cx-activate-item "NavigationPane*Frame2*Table1*List_Tree2")
(cx-gui-do cx-set-list-tree-selections "NavigationPane*Frame2*Table1*List_Tree2" (list "Solution|Initialization"))
(cx-gui-do cx-set-toggle-button2 "Solution Initialization*Table1*ToggleBox3(Initialization Methods)*Standard Initialization" #t)
(cx-gui-do cx-activate-item "Solution Initialization*Table1*ToggleBox3(Initialization Methods)*Standard Initialization")
(cx-gui-do cx-set-toggle-button2 "Solution Initialization*Table1*ToggleBox3(Initialization Methods)*Hybrid  Initialization" #t)
(cx-gui-do cx-activate-item "Solution Initialization*Table1*ToggleBox3(Initialization Methods)*Hybrid  Initialization")
(cx-gui-do cx-activate-item "Solution Initialization*Table1*Frame12*PushButton2(Initialize)")

Initialize using the hybrid initialization method.

Checking case topology... 
-This case has both inlets & outlets 
-Pressure information is not available at the boundaries.
 Case will be initialized with constant pressure

	iter		scalar-0

	1		2.280861e-03
	2		3.690350e-04
	3		5.487547e-05
	4		1.472300e-05
	5		7.264817e-06
	6		1.155871e-05
	7		3.198099e-06
	8		4.971621e-06
	9		1.383963e-06
	10		2.185380e-06

Hybrid initialization is done.

Warning: convergence tolerance of 1.000000e-06 not reached
during Hybrid Initialization.
(cx-gui-do cx-set-list-tree-selections "NavigationPane*Frame2*Table1*List_Tree2" (list "Solution|Run Calculation"))
(cx-gui-do cx-set-list-tree-selections "NavigationPane*Frame2*Table1*List_Tree2" (list "Solution|Run Calculation"))
(cx-gui-do cx-set-list-tree-selections "NavigationPane*Frame2*Table1*List_Tree2" (list "Solution|Run Calculation"))
(cx-gui-do cx-activate-item "NavigationPane*Frame2*Table1*List_Tree2")
(cx-gui-do cx-set-list-tree-selections "NavigationPane*Frame2*Table1*List_Tree2" (list "Solution|Run Calculation"))
(cx-gui-do cx-activate-item "Run Calculation*Table1*Table6(Solution Advancement)*Table1*PushButton1(Calculate)")


  iter  continuity  x-velocity  y-velocity  z-velocity      energy           k       omega  report-con  report-con  report-con  report-con  report-con  report-con     time/iter
     1  5.8618e-03  3.0061e-03  4.2976e-03  3.2192e-03  0.0000e+00  1.0000e+01  3.2587e-02                                                                          0:41:35  499
     2  4.5566e-03  2.9434e-03  4.9293e-03  3.4417e-03  0.0000e+00  6.3719e-03  1.4556e-02                                                                          0:41:30  498
     3  5.3988e-03  2.4566e-03  3.6831e-03  2.6199e-03  0.0000e+00  3.3548e-03  7.5810e-03                                                                          0:39:46  497
     4  4.1922e-03  3.2304e-03  5.1647e-03  3.3569e-03  0.0000e+00  4.5821e-03  4.6729e-03                                                                          0:40:01  496
     5  6.2806e-03  2.7490e-03  4.4738e-03  2.9230e-03  0.0000e+00  3.1252e-03  2.9007e-03                                                                          0:40:12  495
     6  8.0754e-03  2.4850e-03  4.4739e-03  2.5503e-03  1.9239e-14  2.9883e-03  1.8624e-03                                                                          0:40:19  494
     7  8.4281e-03  2.0756e-03  4.2561e-03  2.1151e-03  1.9169e-14  3.2373e-03  1.4279e-03                                                                          0:40:25  493
     8  9.1136e-03  1.7176e-03  3.5898e-03  1.7089e-03  1.9201e-14  3.5500e-03  1.2258e-03                                                                          0:40:28  492
     9  9.1414e-03  1.5047e-03  3.2939e-03  1.4326e-03  1.9230e-14  4.2289e-03  1.0485e-03                                                                          0:42:07  491
    10  9.2739e-03  1.4281e-03  3.3962e-03  1.3547e-03  1.9265e-14  2.7499e-03  8.3207e-04                                                                          0:45:04  490
    11  8.4284e-03  1.3186e-03  2.9115e-03  1.2833e-03  1.9188e-14  2.0732e-03  6.8338e-04                                                                          0:45:45  489

  iter  continuity  x-velocity  y-velocity  z-velocity      energy           k       omega  report-con  report-con  report-con  report-con  report-con  report-con     time/iter
    12  7.3217e-03  1.2116e-03  2.7162e-03  1.2384e-03  1.9184e-14  2.2392e-03  6.0449e-04                                                                          0:47:55  488
    13  6.2938e-03  1.2372e-03  2.6885e-03  1.2125e-03  1.9057e-14  2.0528e-03  5.7346e-04                                                                          0:48:00  487
    14  5.6305e-03  1.2194e-03  2.6330e-03  1.1992e-03  1.9046e-14  1.4360e-03  5.5365e-04                                                                          0:46:25  486
    15  5.5089e-03  1.1408e-03  2.5942e-03  1.1750e-03  1.9016e-14  1.3064e-03  5.4338e-04                                                                          0:45:08  485
    16  5.2631e-03  1.0955e-03  2.4922e-03  1.0933e-03  1.9019e-14  1.3024e-03  5.1655e-04                                                                          0:47:20  484
    17  4.9948e-03  1.1385e-03  2.3679e-03  1.0331e-03  1.9003e-14  1.2998e-03  5.1148e-04                                                                          0:49:03  483
    18  4.8559e-03  1.0210e-03  2.1710e-03  1.0287e-03  1.9009e-14  1.2509e-03  5.0833e-04                                                                          0:53:37  482
    19  4.5909e-03  9.5865e-04  2.0365e-03  9.8802e-04  1.9037e-14  1.2494e-03  4.7421e-04                                                                          0:50:50  481
    20  4.3071e-03  9.4698e-04  1.9362e-03  9.4489e-04  1.9041e-14  1.0915e-03  4.4477e-04                                                                          0:48:35  480
    21  4.1670e-03  9.3905e-04  1.8577e-03  8.4904e-04  1.9041e-14  8.2874e-04  4.2866e-04                                                                          0:45:10  479
    22  4.1553e-03  9.5198e-04  1.8038e-03  8.2935e-04  1.9016e-14  8.0898e-04  4.3736e-04                                                                          0:42:26  478

  iter  continuity  x-velocity  y-velocity  z-velocity      energy           k       omega  report-con  report-con  report-con  report-con  report-con  report-con     time/iter
    23  4.0547e-03  8.7920e-04  1.7059e-03  8.0609e-04  1.9066e-14  9.2778e-04  4.3140e-04                                                                          0:40:14  477
    24  3.6398e-03  8.3220e-04  1.6606e-03  7.7805e-04  1.9049e-14  1.1099e-03  3.8066e-04                                                                          0:38:28  476
    25  3.3935e-03  7.9127e-04  1.6499e-03  7.5627e-04  1.9047e-14  1.3340e-03  3.4372e-04                                                                          0:37:03  475
    26  3.3643e-03  7.3546e-04  1.5622e-03  7.2151e-04  1.9057e-14  1.2080e-03  3.2726e-04                                                                          0:35:53  474
    27  3.4200e-03  6.8999e-04  1.4969e-03  6.8297e-04  1.9068e-14  1.0929e-03  3.2260e-04                                                                          0:34:58  473
    28  3.4388e-03  6.5075e-04  1.4382e-03  6.4482e-04  1.9056e-14  1.0238e-03  3.1603e-04                                                                          0:34:12  472
    29  3.3878e-03  6.2034e-04  1.3934e-03  6.1269e-04  1.9075e-14  8.7802e-04  2.7508e-04                                                                          0:33:35  471
    30  3.1499e-03  5.9420e-04  1.3356e-03  5.9134e-04  1.9096e-14  7.8901e-04  2.4798e-04                                                                          0:33:05  470
    31  2.9802e-03  5.9083e-04  1.2537e-03  5.6746e-04  1.9102e-14  7.7026e-04  2.3184e-04                                                                          0:34:13  469
    32  2.8625e-03  5.7760e-04  1.1603e-03  5.4471e-04  1.9016e-14  8.4583e-04  2.1979e-04                                                                          0:33:34  468
    33  2.8640e-03  5.7288e-04  1.1155e-03  5.3182e-04  1.9050e-14  9.1179e-04  2.0705e-04                                                                          0:36:08  467

  iter  continuity  x-velocity  y-velocity  z-velocity      energy           k       omega  report-con  report-con  report-con  report-con  report-con  report-con     time/iter
    34  2.8535e-03  5.5642e-04  1.0980e-03  5.0694e-04  1.9045e-14  9.7534e-04  1.9017e-04                                                                          0:35:03  466
    35  2.8651e-03  5.3727e-04  1.0955e-03  4.9591e-04  1.8998e-14  9.3601e-04  1.7437e-04                                                                          0:35:44  465
Solution for report definition mf_m2 has converged
Solution for report definition mf_m3 has converged
Solution for report definition ns_m4 has converged
    36  2.9744e-03  4.9718e-04  1.0505e-03  4.8314e-04  1.9027e-14  8.7838e-04  1.7036e-04  7.2781e-02  1.6348e-03  0.0000e+00  1.0314e-05  9.6208e-06  3.0889e+00  0:34:43  464
Solution for report definition mf_m2 has converged
Solution for report definition mf_m3 has converged
Solution for report definition ns_m4 has converged
    37  2.8687e-03  4.7779e-04  1.0090e-03  4.8128e-04  1.8979e-14  8.0727e-04  1.6891e-04  6.8329e-02  1.5628e-03  0.0000e+00  1.1038e-05  7.7494e-06  8.7629e-01  0:33:53  463
Solution for report definition mf_m2 has converged
Solution for report definition mf_m3 has converged
Solution for report definition ns_m4 has converged
    38  2.6002e-03  4.6199e-04  9.5509e-04  4.6462e-04  1.8984e-14  7.4172e-04  1.6601e-04  6.3423e-02  1.4845e-03  0.0000e+00  1.1242e-05  4.5596e-06  9.0389e-01  0:39:22  462
Solution for report definition mf_m2 has converged
Solution for report definition mf_m3 has converged
Solution for report definition ns_m4 has converged
    39  2.4508e-03  4.4758e-04  9.1162e-04  4.5350e-04  1.9017e-14  6.9298e-04  1.5690e-04  5.9943e-02  1.2736e-03  0.0000e+00  1.0163e-05  6.8200e-06  9.2492e-01  0:42:11  461
Solution for report definition mwtph_m1 has converged
Solution for report definition mf_m2 has converged
Solution for report definition mf_m3 has converged
Solution for report definition ns_m4 has converged
    40  2.3171e-03  4.2500e-04  8.6563e-04  4.4297e-04  1.8975e-14  6.7161e-04  1.4713e-04  5.9223e-02  9.8139e-04  0.0000e+00  8.3965e-06  4.9700e-06  9.3686e-01  0:39:48  460
Solution for report definition mwtph_m1 has converged
Solution for report definition mf_m2 has converged
Solution for report definition mf_m3 has converged
Solution for report definition ns_m4 has converged
    41  2.1780e-03  4.1044e-04  8.3868e-04  4.3649e-04  1.8999e-14  6.7465e-04  1.4005e-04  5.8670e-02  6.5601e-04  0.0000e+00  9.5115e-06  4.0886e-06  8.2140e-01  0:37:54  459
Solution for report definition mwtph_m1 has converged
Solution for report definition mf_m2 has converged
Solution for report definition mf_m3 has converged
Solution for report definition ns_m4 has converged
    42  2.1289e-03  3.9936e-04  8.2380e-04  4.2654e-04  1.8998e-14  6.9220e-04  1.3805e-04  5.3758e-02  4.3505e-04  0.0000e+00  1.3227e-05  4.3595e-06  6.0712e-01  0:37:53  458
Solution for report definition mwtph_m1 has converged
Solution for report definition mf_m2 has converged
Solution for report definition mf_m3 has converged
Solution for report definition ns_m4 has converged
    43  2.1956e-03  3.8460e-04  8.2027e-04  4.1301e-04  1.8970e-14  6.9193e-04  1.3893e-04  5.2508e-02  8.5462e-05  0.0000e+00  1.8038e-05  6.8636e-06  4.8201e-01  0:37:51  457
Solution for report definition mwtph_m1 has converged
Solution for report definition mf_m2 has converged
Solution for report definition mf_m3 has converged
Solution for report definition ns_m4 has converged
    44  2.2971e-03  3.7655e-04  8.2759e-04  4.0898e-04  1.8984e-14  6.9524e-04  1.3760e-04  4.4566e-02  9.9517e-05  0.0000e+00  1.8036e-05  8.0064e-06  3.8081e-01  0:36:18  456

  iter  continuity  x-velocity  y-velocity  z-velocity      energy           k       omega  report-con  report-con  report-con  report-con  report-con  report-con     time/iter
Solution for report definition mwtph_m1 has converged
Solution for report definition mf_m2 has converged
Solution for report definition mf_m3 has converged
Solution for report definition ns_m4 has converged
    45  2.3106e-03  3.7155e-04  8.2668e-04  3.9813e-04  1.9012e-14  7.2397e-04  1.4029e-04  3.5087e-02  1.2720e-04  0.0000e+00  1.1872e-05  6.7432e-06  2.5652e-01  0:36:34  455
Solution for report definition mwtph_m1 has converged
Solution for report definition mf_m2 has converged
Solution for report definition mf_m3 has converged
Solution for report definition ns_m4 has converged
    46  2.2745e-03  3.6703e-04  8.2200e-04  3.9148e-04  1.8975e-14  7.6780e-04  1.3898e-04  2.4394e-02  1.1828e-04  0.0000e+00  1.4064e-05  7.3053e-06  1.2322e-01  0:35:14  454
Solution for report definition mwtph_m1 has converged
Solution for report definition mf_m2 has converged
Solution for report definition mf_m3 has converged
Solution for report definition ns_m4 has converged
    47  2.2801e-03  3.6705e-04  8.1724e-04  3.8400e-04  1.8993e-14  8.0949e-04  1.3560e-04  1.4338e-02  6.4925e-05  0.0000e+00  1.2909e-05  7.3258e-06  1.7205e+00  0:34:10  453
Solution for report definition mwtph_m1 has converged
Solution for report definition mf_m2 has converged
Solution for report definition mf_m3 has converged
Solution for report definition ns_m4 has converged
    48  2.3231e-03  3.6243e-04  8.0033e-04  3.7462e-04  1.8939e-14  8.3613e-04  1.3222e-04  3.8480e-03  8.3712e-05  0.0000e+00  1.3069e-05  7.9646e-06  4.8217e-01  0:33:18  452
Solution for report definition mwtph_m1 has converged
Solution for report definition mf_m2 has converged
Solution for report definition mf_m3 has converged
Solution for report definition ns_m4 has converged
    49  2.2900e-03  3.5439e-04  7.7649e-04  3.6605e-04  1.8977e-14  8.5017e-04  1.3164e-04  8.9445e-03  1.8317e-04  0.0000e+00  9.9812e-06  7.6017e-06  1.1020e+00  0:32:36  451
Solution for report definition mwtph_m1 has converged
Solution for report definition mf_m2 has converged
Solution for report definition mf_m3 has converged
Solution for report definition ns_m4 has converged
    50  2.2965e-03  3.4943e-04  7.6435e-04  3.6071e-04  1.9001e-14  8.5883e-04  1.3354e-04  1.3836e-02  2.5783e-04  0.0000e+00  1.3278e-05  9.9304e-06  1.0346e+00  0:33:31  450
Solution for report definition mwtph_m1 has converged
Solution for report definition mf_m2 has converged
Solution for report definition mf_m3 has converged
Solution for report definition ns_m4 has converged
    51  2.2791e-03  3.3965e-04  7.3519e-04  3.4937e-04  1.9044e-14  8.2626e-04  1.3223e-04  1.8905e-02  3.3037e-04  0.0000e+00  1.3370e-05  1.2224e-05  7.2207e-01  0:34:14  449
Solution for report definition mwtph_m1 has converged
Solution for report definition mf_m2 has converged
Solution for report definition mf_m3 has converged
Solution for report definition ns_m4 has converged
    52  2.2038e-03  3.2976e-04  7.0235e-04  3.3977e-04  1.9061e-14  7.6734e-04  1.2875e-04  2.3232e-02  3.7918e-04  0.0000e+00  1.1314e-05  1.3321e-05  4.5144e-01  0:33:18  448
Solution for report definition mwtph_m1 has converged
Solution for report definition mf_m2 has converged
Solution for report definition mf_m3 has converged
Solution for report definition ns_m4 has converged
    53  2.0851e-03  3.2134e-04  6.7659e-04  3.2994e-04  1.9012e-14  7.1125e-04  1.2253e-04  2.5063e-02  4.3701e-04  0.0000e+00  1.0628e-05  1.3480e-05  4.9165e-01  0:32:33  447
Solution for report definition mwtph_m1 has converged
Solution for report definition mf_m2 has converged
Solution for report definition mf_m3 has converged
Solution for report definition ns_m4 has converged
    54  1.9569e-03  3.1610e-04  6.5001e-04  3.1987e-04  1.9046e-14  6.6883e-04  1.1643e-04  2.4512e-02  4.2302e-04  0.0000e+00  7.8042e-06  1.3777e-05  3.5187e-01  0:31:55  446
Solution for report definition mwtph_m1 has converged
Solution for report definition mf_m2 has converged
Solution for report definition mf_m3 has converged
Solution for report definition ns_m4 has converged
    55  1.8226e-03  3.1130e-04  6.2919e-04  3.0945e-04  1.8993e-14  6.4175e-04  1.1047e-04  2.3391e-02  4.2356e-04  0.0000e+00  3.8257e-06  1.2485e-05  1.0498e+00  0:35:52  445

  iter  continuity  x-velocity  y-velocity  z-velocity      energy           k       omega  report-con  report-con  report-con  report-con  report-con  report-con     time/iter
Solution for report definition mwtph_m1 has converged
Solution for report definition mf_m2 has converged
Solution for report definition mf_m3 has converged
Solution for report definition ns_m4 has converged
    56  1.7222e-03  3.0716e-04  6.1610e-04  3.0083e-04  1.9031e-14  6.3702e-04  1.0896e-04  2.0692e-02  4.1897e-04  0.0000e+00  7.2815e-06  7.8589e-06  3.6018e-01  0:36:02  444
Solution for report definition mwtph_m1 has converged
Solution for report definition mf_m2 has converged
Solution for report definition mf_m3 has converged
Solution for report definition ns_m4 has converged
    57  1.6928e-03  3.0257e-04  6.1389e-04  2.9064e-04  1.9042e-14  6.3678e-04  1.0821e-04  1.6281e-02  3.8731e-04  0.0000e+00  8.7723e-06  4.6583e-06  7.8430e-01  0:36:08  443
Solution for report definition mwtph_m1 has converged
Solution for report definition mf_m2 has converged
Solution for report definition mf_m3 has converged
Solution for report definition ns_m4 has converged
    58  1.7048e-03  3.0372e-04  6.2056e-04  2.8506e-04  1.9023e-14  6.2924e-04  1.0772e-04  1.1967e-02  3.4063e-04  0.0000e+00  1.5809e-05  4.5175e-06  1.7482e+00  0:42:06  442
Solution for report definition mwtph_m1 has converged
Solution for report definition mf_m2 has converged
Solution for report definition mf_m3 has converged
Solution for report definition ns_m4 has converged
    59  1.6832e-03  2.9824e-04  6.1524e-04  2.7429e-04  1.9012e-14  6.2908e-04  1.0404e-04  6.4545e-03  2.6807e-04  0.0000e+00  1.6315e-05  6.8577e-06  5.7459e+00  0:46:50  441
Solution for report definition mwtph_m1 has converged
Solution for report definition mf_m2 has converged
Solution for report definition mf_m3 has converged
Solution for report definition ns_m4 has converged
    60  1.6353e-03  2.8375e-04  6.0194e-04  2.6229e-04  1.8977e-14  6.1736e-04  1.0027e-04  3.1880e-03  1.8851e-04  0.0000e+00  1.3844e-05  6.1101e-06  7.5349e-01  0:47:39  440
Solution for report definition mwtph_m1 has converged
Solution for report definition mf_m2 has converged
Solution for report definition mf_m3 has converged
Solution for report definition ns_m4 has converged
    61  1.5605e-03  2.7721e-04  5.8289e-04  2.5560e-04  1.9009e-14  5.9865e-04  9.8889e-05  5.7736e-03  1.0730e-04  0.0000e+00  1.1329e-05  5.5893e-06  8.0644e-01  0:49:45  439
Solution for report definition mwtph_m1 has converged
Solution for report definition mf_m2 has converged
Solution for report definition mf_m3 has converged
Solution for report definition ns_m4 has converged
    62  1.4914e-03  2.7068e-04  5.5313e-04  2.4987e-04  1.9045e-14  5.6912e-04  9.7693e-05  9.3755e-03  3.3941e-05  0.0000e+00  8.9132e-06  4.6186e-06  8.2946e-01  0:51:23  438
Solution for report definition mwtph_m1 has converged
Solution for report definition mf_m2 has converged
Solution for report definition mf_m3 has converged
Solution for report definition ns_m4 has converged
    63  1.4111e-03  2.5879e-04  5.2422e-04  2.4441e-04  1.9028e-14  5.4210e-04  9.4836e-05  1.2026e-02  4.2946e-05  0.0000e+00  3.7927e-06  1.9472e-06  8.6777e-01  0:55:35  437
Solution for report definition mwtph_m1 has converged
Solution for report definition mf_m2 has converged
Solution for report definition mf_m3 has converged
Solution for report definition ns_m4 has converged
    64  1.3366e-03  2.4529e-04  4.9722e-04  2.3780e-04  1.9021e-14  5.1275e-04  8.9859e-05  1.4435e-02  6.5784e-05  0.0000e+00  2.1894e-06  7.5123e-07  8.3716e-01  0:55:59  436
Solution for report definition mwtph_m1 has converged
Solution for report definition mf_m2 has converged
Solution for report definition mf_m3 has converged
Solution for report definition ns_m4 has converged
    65  1.2899e-03  2.3200e-04  4.7503e-04  2.3067e-04  1.9015e-14  4.9022e-04  8.3900e-05  1.5469e-02  8.8885e-05  0.0000e+00  4.1047e-06  9.8310e-07  1.9709e+00  0:54:50  435
Solution for report definition mwtph_m1 has converged
Solution for report definition mf_m2 has converged
Solution for report definition mf_m3 has converged
Solution for report definition ns_m4 has converged
    66  1.2531e-03  2.1585e-04  4.5407e-04  2.2307e-04  1.8983e-14  4.7517e-04  7.7177e-05  1.5267e-02  8.4862e-05  0.0000e+00  1.3963e-06  9.1180e-07  8.4546e+00  0:55:21  434

  iter  continuity  x-velocity  y-velocity  z-velocity      energy           k       omega  report-con  report-con  report-con  report-con  report-con  report-con     time/iter
Solution for report definition mwtph_m1 has converged
Solution for report definition mf_m2 has converged
Solution for report definition mf_m3 has converged
Solution for report definition ns_m4 has converged
    67  1.2333e-03  2.0312e-04  4.3551e-04  2.1749e-04  1.8998e-14  4.5092e-04  7.2359e-05  1.4351e-02  6.9887e-05  0.0000e+00  1.6811e-06  1.0015e-06  2.2916e+00  0:57:10  433
Solution for report definition mwtph_m1 has converged
Solution for report definition mf_m2 has converged
Solution for report definition mf_m3 has converged
Solution for report definition ns_m4 has converged
    68  1.2196e-03  1.9559e-04  4.1866e-04  2.1072e-04  1.9040e-14  4.3371e-04  6.9923e-05  1.4057e-02  5.8648e-05  0.0000e+00  2.9371e-06  6.1767e-07  1.2130e+00  0:55:42  432
Solution for report definition mwtph_m1 has converged
Solution for report definition mf_m2 has converged
Solution for report definition mf_m3 has converged
Solution for report definition ns_m4 has converged
    69  1.2012e-03  1.8874e-04  4.0135e-04  2.0154e-04  1.9024e-14  4.2165e-04  6.9958e-05  1.2340e-02  2.0012e-05  0.0000e+00  3.5100e-06  2.5613e-06  8.6838e-01  0:55:57  431
Solution for report definition mwtph_m1 has converged
Solution for report definition mf_m2 has converged
Solution for report definition mf_m3 has converged
Solution for report definition ns_m4 has converged
    70  1.1549e-03  1.8270e-04  3.9147e-04  1.9292e-04  1.9021e-14  4.0286e-04  7.0343e-05  1.1085e-02  2.2788e-05  0.0000e+00  1.7674e-06  2.4094e-06  8.5517e-01  0:57:34  430
Solution for report definition mwtph_m1 has converged
Solution for report definition mf_m2 has converged
Solution for report definition mf_m3 has converged
Solution for report definition ns_m4 has converged
    71  1.1340e-03  1.7845e-04  3.8729e-04  1.8621e-04  1.9023e-14  3.9299e-04  7.0832e-05  1.0361e-02  4.5388e-05  0.0000e+00  3.1695e-06  3.5929e-06  9.9146e-01  0:54:31  429
Solution for report definition mwtph_m1 has converged
Solution for report definition mf_m2 has converged
Solution for report definition mf_m3 has converged
Solution for report definition ns_m4 has converged
    72  1.1158e-03  1.7510e-04  3.8474e-04  1.7891e-04  1.9018e-14  3.9007e-04  7.0868e-05  9.5851e-03  6.1738e-05  0.0000e+00  2.8077e-06  3.1520e-06  5.2893e-01  0:52:04  428
Solution for report definition mwtph_m1 has converged
Solution for report definition mf_m2 has converged
Solution for report definition mf_m3 has converged
Solution for report definition ns_m4 has converged
    73  1.0749e-03  1.7249e-04  3.8169e-04  1.7236e-04  1.9030e-14  3.8671e-04  7.2304e-05  8.9818e-03  8.2071e-05  0.0000e+00  2.1123e-06  3.3249e-06  5.2389e-01  0:48:41  427
Solution for report definition mwtph_m1 has converged
Solution for report definition mf_m2 has converged
Solution for report definition mf_m3 has converged
Solution for report definition ns_m4 has converged
    74  1.0769e-03  1.7163e-04  3.7565e-04  1.6665e-04  1.8991e-14  3.7996e-04  7.3310e-05  9.3907e-03  7.3322e-05  0.0000e+00  1.9535e-06  1.5021e-06  5.7467e-01  0:47:22  426
Solution for report definition mwtph_m1 has converged
Solution for report definition mf_m2 has converged
Solution for report definition mf_m3 has converged
Solution for report definition ns_m4 has converged
    75  1.0926e-03  1.7381e-04  3.6880e-04  1.6491e-04  1.9044e-14  3.7007e-04  7.2133e-05  9.8181e-03  6.5907e-05  0.0000e+00  3.4837e-06  1.0914e-06  7.1204e-01  0:47:44  425
Solution for report definition mwtph_m1 has converged
Solution for report definition mf_m2 has converged
Solution for report definition mf_m3 has converged
Solution for report definition ns_m4 has converged
    76  1.0767e-03  1.7327e-04  3.5825e-04  1.6270e-04  1.9064e-14  3.6344e-04  6.9240e-05  1.0180e-02  5.3184e-05  0.0000e+00  2.4847e-06  1.2027e-06  6.5136e-01  0:47:59  424
Solution for report definition mwtph_m1 has converged
Solution for report definition mf_m2 has converged
Solution for report definition mf_m3 has converged
Solution for report definition ns_m4 has converged
    77  1.0354e-03  1.6898e-04  3.4713e-04  1.6121e-04  1.9022e-14  3.5758e-04  6.6255e-05  1.0399e-02  4.3491e-05  0.0000e+00  2.0894e-06  7.7960e-07  8.0363e-01  0:46:45  423

  iter  continuity  x-velocity  y-velocity  z-velocity      energy           k       omega  report-con  report-con  report-con  report-con  report-con  report-con     time/iter
Solution for report definition mwtph_m1 has converged
Solution for report definition mf_m2 has converged
Solution for report definition mf_m3 has converged
Solution for report definition ns_m4 has converged
    78  9.9779e-04  1.6314e-04  3.3992e-04  1.6052e-04  1.9049e-14  3.5254e-04  6.5405e-05  1.0457e-02  3.0759e-05  0.0000e+00  2.7519e-06  5.4074e-07  2.8796e+00  0:45:45  422
Solution for report definition mwtph_m1 has converged
Solution for report definition mf_m2 has converged
Solution for report definition mf_m3 has converged
Solution for report definition ns_m4 has converged
    79  9.6681e-04  1.5741e-04  3.3640e-04  1.6051e-04  1.9027e-14  3.5045e-04  6.5002e-05  1.0287e-02  2.2313e-05  0.0000e+00  2.7793e-06  6.8194e-07  2.2918e+00  0:43:32  421
Solution for report definition mwtph_m1 has converged
Solution for report definition mf_m2 has converged
Solution for report definition mf_m3 has converged
Solution for report definition ns_m4 has converged
    80  9.4380e-04  1.5312e-04  3.3316e-04  1.5947e-04  1.8990e-14  3.5050e-04  6.5430e-05  1.0316e-02  2.4824e-05  0.0000e+00  3.0228e-06  3.7547e-07  9.2027e-01  0:44:33  420
Solution for report definition mwtph_m1 has converged
Solution for report definition mf_m2 has converged
Solution for report definition mf_m3 has converged
Solution for report definition ns_m4 has converged
    81  9.2862e-04  1.5079e-04  3.3077e-04  1.5828e-04  1.9022e-14  3.5341e-04  6.6681e-05  1.0339e-02  4.0631e-05  0.0000e+00  1.4470e-06  1.0605e-06  6.5747e-01  0:46:43  419
Solution for report definition mwtph_m1 has converged
Solution for report definition mf_m2 has converged
Solution for report definition mf_m3 has converged
Solution for report definition ns_m4 has converged
    82  9.2513e-04  1.5178e-04  3.2776e-04  1.5523e-04  1.9021e-14  3.5732e-04  6.7606e-05  9.5081e-03  4.3942e-05  0.0000e+00  9.4741e-07  1.8287e-06  5.9171e-01  0:47:03  418
Solution for report definition mwtph_m1 has converged
Solution for report definition mf_m2 has converged
Solution for report definition mf_m3 has converged
Solution for report definition ns_m4 has converged
    83  9.4142e-04  1.5472e-04  3.2419e-04  1.5106e-04  1.8990e-14  3.5465e-04  6.7483e-05  8.7661e-03  5.5043e-05  0.0000e+00  1.4480e-06  2.7000e-06  1.1493e+00  0:47:17  417
Solution for report definition mwtph_m1 has converged
Solution for report definition mf_m2 has converged
Solution for report definition mf_m3 has converged
Solution for report definition ns_m4 has converged
    84  9.5400e-04  1.5521e-04  3.2110e-04  1.4795e-04  1.8993e-14  3.6316e-04  6.6687e-05  7.5533e-03  6.3070e-05  0.0000e+00  9.0944e-07  2.9789e-06  7.0814e-01  0:46:03  416
Solution for report definition mwtph_m1 has converged
Solution for report definition mf_m2 has converged
Solution for report definition mf_m3 has converged
Solution for report definition ns_m4 has converged
    85  9.6131e-04  1.5523e-04  3.1692e-04  1.4498e-04  1.8943e-14  3.7001e-04  6.4215e-05  5.5450e-03  6.0037e-05  0.0000e+00  1.6217e-06  3.5264e-06  4.2064e-01  0:45:03  415
Solution for report definition mwtph_m1 has converged
Solution for report definition mf_m2 has converged
Solution for report definition mf_m3 has converged
Solution for report definition ns_m4 has converged
    86  9.6100e-04  1.5230e-04  3.1043e-04  1.4162e-04  1.8968e-14  3.6792e-04  6.0210e-05  3.6391e-03  5.5900e-05  0.0000e+00  3.4087e-06  4.5882e-06  6.1402e-01  0:44:14  414
Solution for report definition mwtph_m1 has converged
Solution for report definition mf_m2 has converged
Solution for report definition mf_m3 has converged
Solution for report definition ns_m4 has converged
    87  9.6775e-04  1.4658e-04  3.0241e-04  1.3771e-04  1.8993e-14  3.5565e-04  5.5875e-05  1.6735e-03  5.0835e-05  0.0000e+00  3.0393e-06  4.8095e-06  9.9993e-01  0:43:34  413
Solution for report definition mwtph_m1 has converged
Solution for report definition mf_m2 has converged
Solution for report definition mf_m3 has converged
Solution for report definition ns_m4 has converged
    88  9.8835e-04  1.4125e-04  2.9708e-04  1.3536e-04  1.8979e-14  3.4319e-04  5.3485e-05  1.7694e-03  3.1644e-05  0.0000e+00  4.1100e-06  5.0431e-06  1.7252e+00  0:43:00  412

  iter  continuity  x-velocity  y-velocity  z-velocity      energy           k       omega  report-con  report-con  report-con  report-con  report-con  report-con     time/iter
Solution for report definition mwtph_m1 has converged
Solution for report definition mf_m2 has converged
Solution for report definition mf_m3 has converged
Solution for report definition ns_m4 has converged
    89  9.7374e-04  1.3717e-04  2.9340e-04  1.3329e-04  1.9000e-14  3.3073e-04  5.3608e-05  3.5563e-03  3.0014e-05  0.0000e+00  3.4946e-06  4.8922e-06  1.5360e+00  0:42:32  411
Solution for report definition mwtph_m1 has converged
Solution for report definition mf_m2 has converged
Solution for report definition mf_m3 has converged
Solution for report definition ns_m4 has converged
    90  9.5190e-04  1.3643e-04  2.9172e-04  1.3211e-04  1.8994e-14  3.2207e-04  5.4624e-05  5.2856e-03  5.0716e-05  0.0000e+00  3.6749e-06  4.6219e-06  1.0686e+00  0:42:09  410
Solution for report definition mwtph_m1 has converged
Solution for report definition mf_m2 has converged
Solution for report definition mf_m3 has converged
Solution for report definition ns_m4 has converged
    91  9.3737e-04  1.3652e-04  2.9163e-04  1.3212e-04  1.9025e-14  3.2235e-04  5.5825e-05  7.5675e-03  8.4925e-05  0.0000e+00  1.3300e-06  3.0477e-06  5.9921e-01  0:41:49  409
Solution for report definition mwtph_m1 has converged
Solution for report definition mf_m2 has converged
Solution for report definition mf_m3 has converged
Solution for report definition ns_m4 has converged
    92  9.0551e-04  1.3763e-04  2.9015e-04  1.3074e-04  1.9017e-14  3.2880e-04  5.6869e-05  9.2408e-03  1.2579e-04  0.0000e+00  8.7174e-07  1.7852e-06  5.8930e-01  0:41:32  408
Solution for report definition mwtph_m1 has converged
Solution for report definition mf_m2 has converged
Solution for report definition mf_m3 has converged
Solution for report definition ns_m4 has converged
    93  8.9247e-04  1.4004e-04  2.9142e-04  1.3225e-04  1.9055e-14  3.2649e-04  5.7464e-05  1.0389e-02  1.6182e-04  0.0000e+00  5.0568e-07  5.8531e-07  6.3716e-01  0:41:17  407
Solution for report definition mwtph_m1 has converged
Solution for report definition mf_m2 has converged
Solution for report definition mf_m3 has converged
Solution for report definition ns_m4 has converged
    94  8.8746e-04  1.4387e-04  2.9506e-04  1.3407e-04  1.9051e-14  3.2312e-04  5.9143e-05  1.0392e-02  1.7924e-04  0.0000e+00  1.0744e-06  5.3241e-07  7.2538e-01  0:39:43  406
Solution for report definition mwtph_m1 has converged
Solution for report definition mf_m2 has converged
Solution for report definition mf_m3 has converged
Solution for report definition ns_m4 has converged
    95  8.9901e-04  1.4784e-04  2.9889e-04  1.3407e-04  1.8984e-14  3.2263e-04  6.0507e-05  1.0286e-02  1.9597e-04  0.0000e+00  4.1108e-07  6.9970e-07  5.5875e-01  0:39:48  405
Solution for report definition mwtph_m1 has converged
Solution for report definition mf_m2 has converged
Solution for report definition mf_m3 has converged
Solution for report definition ns_m4 has converged
    96  9.3548e-04  1.4948e-04  2.9367e-04  1.3409e-04  1.8991e-14  3.1203e-04  5.9770e-05  9.0530e-03  1.8308e-04  0.0000e+00  9.6795e-07  1.1678e-06  7.6153e-01  0:39:50  404
Solution for report definition mwtph_m1 has converged
Solution for report definition mf_m2 has converged
Solution for report definition mf_m3 has converged
Solution for report definition ns_m4 has converged
    97  1.0128e-03  1.4446e-04  2.8448e-04  1.3422e-04  1.8970e-14  2.9687e-04  5.8245e-05  7.5483e-03  1.5770e-04  0.0000e+00  6.0353e-07  8.1956e-07  1.0005e+00  0:39:51  403
Solution for report definition mwtph_m1 has converged
Solution for report definition mf_m2 has converged
Solution for report definition mf_m3 has converged
Solution for report definition ns_m4 has converged
    98  1.0230e-03  1.3505e-04  2.7579e-04  1.3311e-04  1.9011e-14  2.8737e-04  5.5581e-05  5.7326e-03  1.2994e-04  0.0000e+00  1.9159e-06  8.1447e-07  1.5333e+00  0:39:50  402
Solution for report definition mwtph_m1 has converged
Solution for report definition mf_m2 has converged
Solution for report definition mf_m3 has converged
Solution for report definition ns_m4 has converged
    99  9.6053e-04  1.3013e-04  2.6809e-04  1.3213e-04  1.9025e-14  2.8403e-04  5.3700e-05  4.4537e-03  1.0969e-04  0.0000e+00  1.6005e-06  5.1158e-07  5.2792e+00  0:38:29  401

  iter  continuity  x-velocity  y-velocity  z-velocity      energy           k       omega  report-con  report-con  report-con  report-con  report-con  report-con     time/iter
Solution for report definition mwtph_m1 has converged
Solution for report definition mf_m2 has converged
Solution for report definition mf_m3 has converged
Solution for report definition ns_m4 has converged
   100  9.1219e-04  1.2963e-04  2.6379e-04  1.3176e-04  1.8990e-14  2.8419e-04  5.3169e-05  2.5405e-03  7.4087e-05  0.0000e+00  1.6722e-06  4.3526e-07  6.7995e-01  0:38:42  400
Solution for report definition mwtph_m1 has converged
Solution for report definition mf_m2 has converged
Solution for report definition mf_m3 has converged
Solution for report definition ns_m4 has converged
   101  8.6459e-04  1.2961e-04  2.6116e-04  1.3235e-04  1.9032e-14  2.8891e-04  5.3559e-05  1.0841e-03  4.7353e-05  0.0000e+00  2.7844e-06  8.6925e-07  6.4528e-01  0:38:52  399
Solution for report definition mwtph_m1 has converged
Solution for report definition mf_m2 has converged
Solution for report definition mf_m3 has converged
Solution for report definition ns_m4 has converged
   102  8.1315e-04  1.2831e-04  2.6063e-04  1.3311e-04  1.9027e-14  2.9494e-04  5.4226e-05  1.2165e-03  2.0176e-05  0.0000e+00  4.8225e-06  2.0811e-06  5.8365e-01  0:38:58  398
Solution for report definition mwtph_m1 has converged
Solution for report definition mf_m2 has converged
Solution for report definition mf_m3 has converged
Solution for report definition ns_m4 has converged
   103  7.7863e-04  1.2492e-04  2.6140e-04  1.3291e-04  1.9045e-14  3.0189e-04  5.4403e-05  2.0720e-03  3.3924e-05  0.0000e+00  4.8604e-06  2.7149e-06  6.5445e-01  0:37:43  397
Solution for report definition mwtph_m1 has converged
Solution for report definition mf_m2 has converged
Solution for report definition mf_m3 has converged
Solution for report definition ns_m4 has converged
   104  7.8409e-04  1.2261e-04  2.6128e-04  1.3046e-04  1.9008e-14  3.0745e-04  5.3590e-05  3.4849e-03  6.4399e-05  0.0000e+00  2.0096e-06  1.7377e-06  2.2747e+00  0:40:40  396
Solution for report definition mwtph_m1 has converged
Solution for report definition mf_m2 has converged
Solution for report definition mf_m3 has converged
Solution for report definition ns_m4 has converged
   105  7.8016e-04  1.2533e-04  2.6346e-04  1.2668e-04  1.8969e-14  3.1093e-04  5.1711e-05  4.1848e-03  9.2697e-05  0.0000e+00  3.0172e-06  2.2291e-06  9.6552e-01  0:40:21  395
Solution for report definition mwtph_m1 has converged
Solution for report definition mf_m2 has converged
Solution for report definition mf_m3 has converged
Solution for report definition ns_m4 has converged
   106  7.6263e-04  1.2711e-04  2.6274e-04  1.2142e-04  1.8986e-14  3.1225e-04  5.0756e-05  4.6089e-03  1.1253e-04  0.0000e+00  2.6220e-06  2.3822e-06  7.5047e-01  0:40:04  394
Solution for report definition mwtph_m1 has converged
Solution for report definition mf_m2 has converged
Solution for report definition mf_m3 has converged
Solution for report definition ns_m4 has converged
   107  7.7733e-04  1.2758e-04  2.6195e-04  1.1690e-04  1.9010e-14  3.1019e-04  4.9333e-05  5.0590e-03  1.3804e-04  0.0000e+00  1.5164e-06  1.0456e-06  7.1727e-01  0:39:50  393
Solution for report definition mwtph_m1 has converged
Solution for report definition mf_m2 has converged
Solution for report definition mf_m3 has converged
Solution for report definition ns_m4 has converged
   108  8.0986e-04  1.2509e-04  2.5970e-04  1.1370e-04  1.9015e-14  3.0585e-04  4.7509e-05  4.8408e-03  1.4934e-04  0.0000e+00  2.4625e-06  1.4273e-06  6.1262e-01  0:38:19  392
Solution for report definition mwtph_m1 has converged
Solution for report definition mf_m2 has converged
Solution for report definition mf_m3 has converged
Solution for report definition ns_m4 has converged
   109  8.3034e-04  1.2308e-04  2.5475e-04  1.1106e-04  1.9018e-14  2.9526e-04  4.5849e-05  3.9369e-03  1.4808e-04  0.0000e+00  1.7426e-06  1.3126e-06  1.0517e+00  0:38:24  391
Solution for report definition mwtph_m1 has converged
Solution for report definition mf_m2 has converged
Solution for report definition mf_m3 has converged
Solution for report definition ns_m4 has converged
   110  8.1825e-04  1.1842e-04  2.4608e-04  1.1006e-04  1.9005e-14  2.7962e-04  4.4143e-05  3.2289e-03  1.4696e-04  0.0000e+00  1.1317e-06  5.8151e-07  1.6848e+00  0:38:26  390

  iter  continuity  x-velocity  y-velocity  z-velocity      energy           k       omega  report-con  report-con  report-con  report-con  report-con  report-con     time/iter
Solution for report definition mwtph_m1 has converged
Solution for report definition mf_m2 has converged
Solution for report definition mf_m3 has converged
Solution for report definition ns_m4 has converged
   111  7.8192e-04  1.1444e-04  2.3608e-04  1.1012e-04  1.9003e-14  2.6724e-04  4.2757e-05  2.3904e-03  1.4712e-04  0.0000e+00  1.2106e-06  3.5546e-07  2.4996e+00  0:37:09  389
Solution for report definition mwtph_m1 has converged
Solution for report definition mf_m2 has converged
Solution for report definition mf_m3 has converged
Solution for report definition ns_m4 has converged
   112  7.5162e-04  1.1184e-04  2.2865e-04  1.0990e-04  1.8996e-14  2.5921e-04  4.2592e-05  1.2635e-03  1.3070e-04  0.0000e+00  2.4649e-06  1.0264e-06  2.0956e+01  0:36:07  388
Solution for report definition mwtph_m1 has converged
Solution for report definition mf_m2 has converged
Solution for report definition mf_m3 has converged
Solution for report definition ns_m4 has converged
   113  7.3538e-04  1.0804e-04  2.2464e-04  1.0900e-04  1.8985e-14  2.5555e-04  4.3173e-05  1.0798e-03  9.9798e-05  0.0000e+00  3.0964e-06  1.6203e-06  1.0906e+00  0:33:59  387
Solution for report definition mwtph_m1 has converged
Solution for report definition mf_m2 has converged
Solution for report definition mf_m3 has converged
Solution for report definition ns_m4 has converged
   114  7.3191e-04  1.0658e-04  2.2359e-04  1.0756e-04  1.8993e-14  2.5612e-04  4.4029e-05  2.3314e-03  6.2111e-05  0.0000e+00  1.4908e-06  1.0107e-06  1.1843e+00  0:32:16  386
Solution for report definition mwtph_m1 has converged
Solution for report definition mf_m2 has converged
Solution for report definition mf_m3 has converged
Solution for report definition ns_m4 has converged
   115  7.2955e-04  1.0791e-04  2.2522e-04  1.0658e-04  1.9000e-14  2.5909e-04  4.4430e-05  3.7489e-03  2.8454e-05  0.0000e+00  1.7358e-06  1.1472e-06  4.7827e+00  0:30:52  385
Solution for report definition mwtph_m1 has converged
Solution for report definition mf_m2 has converged
Solution for report definition mf_m3 has converged
Solution for report definition ns_m4 has converged
   116  7.1232e-04  1.0984e-04  2.2556e-04  1.0444e-04  1.8984e-14  2.6253e-04  4.3771e-05  5.0145e-03  4.7776e-05  0.0000e+00  1.6294e-06  1.1796e-06  2.5199e+00  0:29:45  384
Solution for report definition mwtph_m1 has converged
Solution for report definition mf_m2 has converged
Solution for report definition mf_m3 has converged
Solution for report definition ns_m4 has converged
   117  7.0212e-04  1.1187e-04  2.2522e-04  1.0249e-04  1.8998e-14  2.6752e-04  4.3228e-05  6.0338e-03  6.6854e-05  0.0000e+00  1.9946e-06  9.6576e-07  2.6951e+00  0:28:51  383
Solution for report definition mwtph_m1 has converged
Solution for report definition mf_m2 has converged
Solution for report definition mf_m3 has converged
Solution for report definition ns_m4 has converged
   118  7.0174e-04  1.1360e-04  2.2389e-04  1.0060e-04  1.8973e-14  2.6857e-04  4.2890e-05  6.7535e-03  9.9719e-05  0.0000e+00  1.6143e-06  9.1534e-07  2.0410e+00  0:29:23  382
Solution for report definition mwtph_m1 has converged
Solution for report definition mf_m2 has converged
Solution for report definition mf_m3 has converged
Solution for report definition ns_m4 has converged
   119  7.0955e-04  1.1242e-04  2.2086e-04  9.8588e-05  1.8987e-14  2.5833e-04  4.2140e-05  6.8265e-03  1.2528e-04  0.0000e+00  1.2952e-06  4.7941e-07  1.5025e+00  0:28:32  381
Solution for report definition mwtph_m1 has converged
Solution for report definition mf_m2 has converged
Solution for report definition mf_m3 has converged
Solution for report definition ns_m4 has converged
   120  7.1891e-04  1.0785e-04  2.1498e-04  9.6687e-05  1.8998e-14  2.4520e-04  4.1430e-05  6.2655e-03  1.2789e-04  0.0000e+00  1.1452e-06  5.4633e-07  1.4296e+00  0:27:50  380
Solution for report definition mwtph_m1 has converged
Solution for report definition mf_m2 has converged
Solution for report definition mf_m3 has converged
Solution for report definition ns_m4 has converged
   121  7.2361e-04  1.0164e-04  2.0850e-04  9.5864e-05  1.9000e-14  2.2793e-04  3.9694e-05  5.7278e-03  1.2951e-04  0.0000e+00  7.8973e-07  5.0216e-07  1.2244e+00  0:27:15  379

  iter  continuity  x-velocity  y-velocity  z-velocity      energy           k       omega  report-con  report-con  report-con  report-con  report-con  report-con     time/iter
Solution for report definition mwtph_m1 has converged
Solution for report definition mf_m2 has converged
Solution for report definition mf_m3 has converged
Solution for report definition ns_m4 has converged
   122  7.1713e-04  9.6927e-05  2.0012e-04  9.5123e-05  1.8965e-14  2.1402e-04  3.7639e-05  5.0334e-03  1.2491e-04  0.0000e+00  9.0493e-07  5.7151e-07  8.2633e-01  0:26:47  378
Solution for report definition mwtph_m1 has converged
Solution for report definition mf_m2 has converged
Solution for report definition mf_m3 has converged
Solution for report definition ns_m4 has converged
   123  7.1948e-04  9.4554e-05  1.9187e-04  9.3526e-05  1.8955e-14  2.0345e-04  3.5936e-05  3.7778e-03  1.0442e-04  0.0000e+00  1.1340e-06  2.8745e-07  6.6076e-01  0:27:39  377
Solution for report definition mwtph_m1 has converged
Solution for report definition mf_m2 has converged
Solution for report definition mf_m3 has converged
Solution for report definition ns_m4 has converged
   124  7.2743e-04  9.3253e-05  1.8672e-04  9.1599e-05  1.9018e-14  1.9858e-04  3.6064e-05  2.4394e-03  7.7236e-05  0.0000e+00  1.5142e-06  5.3106e-07  1.6132e+00  0:28:20  376
Solution for report definition mwtph_m1 has converged
Solution for report definition mf_m2 has converged
Solution for report definition mf_m3 has converged
Solution for report definition ns_m4 has converged
   125  7.1931e-04  9.1829e-05  1.8341e-04  8.9534e-05  1.8984e-14  2.0041e-04  3.6684e-05  1.1647e-03  5.6079e-05  0.0000e+00  1.1153e-06  4.0640e-07  2.5092e+00  0:28:51  375
Solution for report definition mwtph_m1 has converged
Solution for report definition mf_m2 has converged
Solution for report definition mf_m3 has converged
Solution for report definition ns_m4 has converged
   126  6.6666e-04  8.9695e-05  1.8148e-04  8.7820e-05  1.8966e-14  2.0709e-04  3.6769e-05  1.3646e-03  2.1831e-05  0.0000e+00  6.8403e-07  3.2992e-07  8.7864e+00  0:28:01  374
Solution for report definition mwtph_m1 has converged
Solution for report definition mf_m2 has converged
Solution for report definition mf_m3 has converged
Solution for report definition ns_m4 has converged
   127  6.1511e-04  8.7176e-05  1.8090e-04  8.7363e-05  1.8956e-14  2.1565e-04  3.6448e-05  1.9470e-03  2.2152e-05  0.0000e+00  2.9281e-06  1.1797e-06  2.2084e+00  0:27:19  373
Solution for report definition mwtph_m1 has converged
Solution for report definition mf_m2 has converged
Solution for report definition mf_m3 has converged
Solution for report definition ns_m4 has converged
   128  5.9109e-04  8.5384e-05  1.8094e-04  8.6881e-05  1.8970e-14  2.2349e-04  3.5980e-05  3.1151e-03  4.2227e-05  0.0000e+00  1.8018e-06  1.2490e-06  7.9112e-01  0:26:46  372
Solution for report definition mwtph_m1 has converged
Solution for report definition mf_m2 has converged
Solution for report definition mf_m3 has converged
Solution for report definition ns_m4 has converged
   129  5.8935e-04  8.6150e-05  1.8192e-04  8.6027e-05  1.9027e-14  2.2899e-04  3.5269e-05  4.5350e-03  7.2787e-05  0.0000e+00  2.0954e-06  1.5487e-06  8.5523e-01  0:27:32  371
Solution for report definition mwtph_m1 has converged
Solution for report definition mf_m2 has converged
Solution for report definition mf_m3 has converged
Solution for report definition ns_m4 has converged
   130  5.9071e-04  8.7577e-05  1.8210e-04  8.4834e-05  1.9038e-14  2.2815e-04  3.4385e-05  5.2907e-03  9.7156e-05  0.0000e+00  2.5753e-06  1.9255e-06  8.3661e-01  0:26:54  370
Solution for report definition mwtph_m1 has converged
Solution for report definition mf_m2 has converged
Solution for report definition mf_m3 has converged
Solution for report definition ns_m4 has converged
   131  5.8618e-04  8.8707e-05  1.8109e-04  8.2915e-05  1.8976e-14  2.2573e-04  3.4053e-05  5.6161e-03  1.1037e-04  0.0000e+00  2.3970e-06  2.0470e-06  2.4188e+00  0:27:37  369
Solution for report definition mwtph_m1 has converged
Solution for report definition mf_m2 has converged
Solution for report definition mf_m3 has converged
Solution for report definition ns_m4 has converged
   132  5.9063e-04  8.6623e-05  1.7766e-04  8.1107e-05  1.8982e-14  2.1808e-04  3.3712e-05  6.1127e-03  1.2752e-04  0.0000e+00  6.9501e-07  1.1910e-06  1.3946e+00  0:26:56  368

  iter  continuity  x-velocity  y-velocity  z-velocity      energy           k       omega  report-con  report-con  report-con  report-con  report-con  report-con     time/iter
Solution for report definition mwtph_m1 has converged
Solution for report definition mf_m2 has converged
Solution for report definition mf_m3 has converged
Solution for report definition ns_m4 has converged
   133  5.9578e-04  8.3036e-05  1.7310e-04  7.9865e-05  1.8945e-14  2.0639e-04  3.3095e-05  5.8170e-03  1.3155e-04  0.0000e+00  8.1872e-07  1.0634e-06  6.6392e-01  0:30:03  367
Solution for report definition mwtph_m1 has converged
Solution for report definition mf_m2 has converged
Solution for report definition mf_m3 has converged
Solution for report definition ns_m4 has converged
   134  5.9741e-04  7.9955e-05  1.6745e-04  7.9474e-05  1.8960e-14  1.9270e-04  3.2848e-05  5.2274e-03  1.2392e-04  0.0000e+00  7.0723e-07  5.1781e-07  6.4288e-01  0:31:18  366
Solution for report definition mwtph_m1 has converged
Solution for report definition mf_m2 has converged
Solution for report definition mf_m3 has converged
Solution for report definition ns_m4 has converged
   135  5.9423e-04  7.6968e-05  1.6184e-04  7.8915e-05  1.8956e-14  1.8159e-04  3.2827e-05  4.3876e-03  1.1404e-04  0.0000e+00  5.2591e-07  2.3744e-07  9.8571e-01  0:31:03  365
Solution for report definition mwtph_m1 has converged
Solution for report definition mf_m2 has converged
Solution for report definition mf_m3 has converged
Solution for report definition ns_m4 has converged
   136  5.7792e-04  7.5045e-05  1.5683e-04  7.8161e-05  1.8939e-14  1.7335e-04  3.2795e-05  3.4116e-03  9.9129e-05  0.0000e+00  9.6299e-07  4.0563e-07  1.2996e+00  0:29:38  364
Solution for report definition mwtph_m1 has converged
Solution for report definition mf_m2 has converged
Solution for report definition mf_m3 has converged
Solution for report definition ns_m4 has converged
   137  5.5362e-04  7.4391e-05  1.5442e-04  7.6875e-05  1.8972e-14  1.7168e-04  3.2829e-05  2.4276e-03  8.2362e-05  0.0000e+00  2.2201e-06  1.0638e-06  4.8907e+01  0:29:41  363
Solution for report definition mwtph_m1 has converged
Solution for report definition mf_m2 has converged
Solution for report definition mf_m3 has converged
Solution for report definition ns_m4 has converged
   138  5.3390e-04  7.5385e-05  1.5462e-04  7.4927e-05  1.8971e-14  1.7665e-04  3.2659e-05  1.0398e-03  5.2070e-05  0.0000e+00  2.4814e-06  1.4943e-06  8.2553e+00  0:28:31  362
Solution for report definition mwtph_m1 has converged
Solution for report definition mf_m2 has converged
Solution for report definition mf_m3 has converged
Solution for report definition ns_m4 has converged
   139  5.1738e-04  7.7593e-05  1.5625e-04  7.2915e-05  1.9003e-14  1.8444e-04  3.2079e-05  1.1789e-03  1.8872e-05  0.0000e+00  2.0070e-06  1.4886e-06  7.3332e+00  0:28:46  361
Solution for report definition mwtph_m1 has converged
Solution for report definition mf_m2 has converged
Solution for report definition mf_m3 has converged
Solution for report definition ns_m4 has converged
   140  5.0492e-04  7.9532e-05  1.5830e-04  7.1690e-05  1.8936e-14  1.9196e-04  3.1555e-05  1.9831e-03  3.4342e-05  0.0000e+00  2.2427e-06  1.7141e-06  4.4578e+00  0:27:45  360
Solution for report definition mwtph_m1 has converged
Solution for report definition mf_m2 has converged
Solution for report definition mf_m3 has converged
Solution for report definition ns_m4 has converged
   141  4.9637e-04  8.0306e-05  1.5879e-04  7.0365e-05  1.8985e-14  1.9676e-04  3.1222e-05  3.0288e-03  5.5397e-05  0.0000e+00  1.1213e-06  1.3368e-06  1.1984e+00  0:26:55  359
Solution for report definition mwtph_m1 has converged
Solution for report definition mf_m2 has converged
Solution for report definition mf_m3 has converged
Solution for report definition ns_m4 has converged
   142  4.9225e-04  7.9699e-05  1.5723e-04  6.9689e-05  1.8970e-14  1.9502e-04  3.0804e-05  3.9281e-03  7.4310e-05  0.0000e+00  3.9042e-07  7.8685e-07  1.2175e+00  0:27:27  358
Solution for report definition mwtph_m1 has converged
Solution for report definition mf_m2 has converged
Solution for report definition mf_m3 has converged
Solution for report definition ns_m4 has converged
   143  4.9529e-04  7.6659e-05  1.5342e-04  6.9252e-05  1.8980e-14  1.8999e-04  3.0771e-05  4.4245e-03  8.9461e-05  0.0000e+00  4.6555e-07  3.3855e-07  1.2181e+00  0:26:39  357

  iter  continuity  x-velocity  y-velocity  z-velocity      energy           k       omega  report-con  report-con  report-con  report-con  report-con  report-con     time/iter
Solution for report definition mwtph_m1 has converged
Solution for report definition mf_m2 has converged
Solution for report definition mf_m3 has converged
Solution for report definition ns_m4 has converged
   144  4.9031e-04  7.4941e-05  1.4811e-04  6.8829e-05  1.9053e-14  1.8254e-04  3.1000e-05  4.7914e-03  1.0034e-04  0.0000e+00  5.5182e-07  2.8837e-07  1.1202e+00  0:29:34  356
Solution for report definition mwtph_m1 has converged
Solution for report definition mf_m2 has converged
Solution for report definition mf_m3 has converged
Solution for report definition ns_m4 has converged
   145  4.7802e-04  7.3642e-05  1.4176e-04  6.8569e-05  1.9056e-14  1.7281e-04  3.0720e-05  4.8405e-03  1.0796e-04  0.0000e+00  8.4391e-07  5.3466e-07  9.2838e-01  0:29:30  355
Solution for report definition mwtph_m1 has converged
Solution for report definition mf_m2 has converged
Solution for report definition mf_m3 has converged
Solution for report definition ns_m4 has converged
   146  4.6358e-04  7.1601e-05  1.3647e-04  6.8432e-05  1.9024e-14  1.6112e-04  2.9744e-05  4.5546e-03  1.0785e-04  0.0000e+00  5.9675e-07  6.0087e-07  5.2791e-01  0:29:26  354
Solution for report definition mwtph_m1 has converged
Solution for report definition mf_m2 has converged
Solution for report definition mf_m3 has converged
Solution for report definition ns_m4 has converged
   147  4.4001e-04  6.8422e-05  1.3259e-04  6.7683e-05  1.9040e-14  1.5164e-04  2.8599e-05  4.0532e-03  1.0257e-04  0.0000e+00  7.9370e-07  7.9681e-07  5.2500e-01  0:29:22  353
Solution for report definition mwtph_m1 has converged
Solution for report definition mf_m2 has converged
Solution for report definition mf_m3 has converged
Solution for report definition ns_m4 has converged
   148  4.1552e-04  6.5618e-05  1.3071e-04  6.7174e-05  1.9072e-14  1.4346e-04  2.7537e-05  3.2958e-03  8.8930e-05  0.0000e+00  6.2952e-07  9.0223e-07  4.1325e-01  0:29:18  352
Solution for report definition mwtph_m1 has converged
Solution for report definition mf_m2 has converged
Solution for report definition mf_m3 has converged
Solution for report definition ns_m4 has converged
   149  4.0072e-04  6.3601e-05  1.3033e-04  6.5990e-05  1.9146e-14  1.4114e-04  2.6832e-05  2.3594e-03  7.1909e-05  0.0000e+00  5.2030e-07  6.4279e-07  1.1081e+00  0:29:13  351
Solution for report definition mwtph_m1 has converged
Solution for report definition mf_m2 has converged
Solution for report definition mf_m3 has converged
Solution for report definition ns_m4 has converged
   150  3.9599e-04  6.1855e-05  1.3047e-04  6.5461e-05  1.9078e-14  1.4493e-04  2.6685e-05  1.4850e-03  5.3213e-05  0.0000e+00  7.9455e-07  2.5670e-07  7.6843e-01  0:27:59  350
Solution for report definition p_m0 has converged
Solution for report definition mwtph_m1 has converged
Solution for report definition mf_m2 has converged
Solution for report definition mf_m3 has converged
Solution for report definition ns_m4 has converged
   151  3.9719e-04  6.0702e-05  1.3087e-04  6.4821e-05  1.9072e-14  1.5109e-04  2.6877e-05  5.7507e-04  2.3742e-05  0.0000e+00  4.5454e-07  3.7136e-07  4.0473e-01  0:28:08  349
Solution for report definition mwtph_m1 has converged
Solution for report definition mf_m2 has converged
Solution for report definition mf_m3 has converged
Solution for report definition ns_m4 has converged
   152  3.9761e-04  6.0115e-05  1.3164e-04  6.4116e-05  1.9045e-14  1.5795e-04  2.7181e-05  1.1847e-03  1.6463e-05  0.0000e+00  4.2402e-07  2.3708e-07  6.3963e-01  0:27:05  348
Solution for report definition mwtph_m1 has converged
Solution for report definition mf_m2 has converged
Solution for report definition mf_m3 has converged
Solution for report definition ns_m4 has converged
   153  3.9590e-04  6.0971e-05  1.3298e-04  6.3403e-05  1.9033e-14  1.6292e-04  2.7169e-05  1.8276e-03  2.4490e-05  0.0000e+00  3.3090e-07  2.2918e-07  5.4078e-01  0:27:23  347
Solution for report definition mwtph_m1 has converged
Solution for report definition mf_m2 has converged
Solution for report definition mf_m3 has converged
Solution for report definition ns_m4 has converged
   154  3.9663e-04  6.2395e-05  1.3430e-04  6.2527e-05  1.9015e-14  1.6675e-04  2.6852e-05  2.4945e-03  3.4512e-05  0.0000e+00  1.3473e-06  6.1006e-07  8.3954e-01  0:27:37  346

  iter  continuity  x-velocity  y-velocity  z-velocity      energy           k       omega  report-con  report-con  report-con  report-con  report-con  report-con     time/iter
Solution for report definition mwtph_m1 has converged
Solution for report definition mf_m2 has converged
Solution for report definition mf_m3 has converged
Solution for report definition ns_m4 has converged
   155  3.9813e-04  6.3116e-05  1.3573e-04  6.1487e-05  1.9012e-14  1.6674e-04  2.6542e-05  3.4146e-03  5.2010e-05  0.0000e+00  1.2072e-06  8.6130e-07  1.3065e+00  0:27:47  345
Solution for report definition mwtph_m1 has converged
Solution for report definition mf_m2 has converged
Solution for report definition mf_m3 has converged
Solution for report definition ns_m4 has converged
   156  3.9538e-04  6.2567e-05  1.3639e-04  6.0506e-05  1.8969e-14  1.6237e-04  2.6162e-05  3.7477e-03  6.1186e-05  0.0000e+00  1.6358e-06  1.2071e-06  1.0650e+00  0:26:45  344
Solution for report definition mwtph_m1 has converged
Solution for report definition mf_m2 has converged
Solution for report definition mf_m3 has converged
Solution for report definition ns_m4 has converged
   157  3.9406e-04  6.1069e-05  1.3404e-04  5.9522e-05  1.8980e-14  1.5764e-04  2.5827e-05  3.9989e-03  7.1427e-05  0.0000e+00  1.5413e-06  1.3937e-06  6.7586e-01  0:27:03  343
Solution for report definition mwtph_m1 has converged
Solution for report definition mf_m2 has converged
Solution for report definition mf_m3 has converged
Solution for report definition ns_m4 has converged
   158  4.0326e-04  5.9228e-05  1.2828e-04  5.8470e-05  1.8994e-14  1.5220e-04  2.5480e-05  4.1591e-03  8.2379e-05  0.0000e+00  1.8162e-06  1.6817e-06  4.1751e-01  0:26:08  342
Solution for report definition mwtph_m1 has converged
Solution for report definition mf_m2 has converged
Solution for report definition mf_m3 has converged
Solution for report definition ns_m4 has converged
   159  4.2938e-04  5.7559e-05  1.2246e-04  5.7783e-05  1.9026e-14  1.4479e-04  2.5101e-05  4.1733e-03  9.0789e-05  0.0000e+00  8.8693e-07  1.3328e-06  5.6059e-01  0:27:40  341
Solution for report definition mwtph_m1 has converged
Solution for report definition mf_m2 has converged
Solution for report definition mf_m3 has converged
Solution for report definition ns_m4 has converged
   160  4.3456e-04  5.5859e-05  1.1743e-04  5.7349e-05  1.9001e-14  1.3630e-04  2.4660e-05  3.7229e-03  8.7093e-05  0.0000e+00  5.5385e-07  1.0918e-06  4.0066e-01  0:27:44  340
Solution for report definition mwtph_m1 has converged
Solution for report definition mf_m2 has converged
Solution for report definition mf_m3 has converged
Solution for report definition ns_m4 has converged
   161  4.3040e-04  5.4226e-05  1.1324e-04  5.6726e-05  1.8992e-14  1.2940e-04  2.4082e-05  3.1173e-03  7.9926e-05  0.0000e+00  5.9623e-07  6.8484e-07  3.4238e-01  0:30:02  339
Solution for report definition mwtph_m1 has converged
Solution for report definition mf_m2 has converged
Solution for report definition mf_m3 has converged
Solution for report definition ns_m4 has converged
   162  4.1870e-04  5.3387e-05  1.1105e-04  5.6329e-05  1.9005e-14  1.2574e-04  2.3598e-05  2.2725e-03  6.5210e-05  0.0000e+00  7.3942e-07  4.5431e-07  3.1376e-01  0:30:43  338
Solution for report definition mwtph_m1 has converged
Solution for report definition mf_m2 has converged
Solution for report definition mf_m3 has converged
Solution for report definition ns_m4 has converged
   163  4.0195e-04  5.3422e-05  1.1095e-04  5.5483e-05  1.9012e-14  1.2704e-04  2.3188e-05  1.3356e-03  4.8137e-05  0.0000e+00  1.2313e-06  3.2587e-07  2.3966e-01  0:31:14  337
Solution for report definition p_m0 has converged
Solution for report definition mwtph_m1 has converged
Solution for report definition mf_m2 has converged
Solution for report definition mf_m3 has converged
Solution for report definition ns_m4 has converged
   164  3.7301e-04  5.4627e-05  1.1233e-04  5.4550e-05  1.9013e-14  1.3119e-04  2.2917e-05  5.7762e-04  2.4516e-05  0.0000e+00  1.2596e-06  4.1220e-07  1.0967e+00  0:30:31  336
Solution for report definition mwtph_m1 has converged
Solution for report definition mf_m2 has converged
Solution for report definition mf_m3 has converged
Solution for report definition ns_m4 has converged
   165  3.5834e-04  5.6325e-05  1.1460e-04  5.2949e-05  1.9005e-14  1.3705e-04  2.2830e-05  1.2133e-03  1.4464e-05  0.0000e+00  8.7062e-07  4.0601e-07  1.2736e+00  0:29:55  335

  iter  continuity  x-velocity  y-velocity  z-velocity      energy           k       omega  report-con  report-con  report-con  report-con  report-con  report-con     time/iter
Solution for report definition mwtph_m1 has converged
Solution for report definition mf_m2 has converged
Solution for report definition mf_m3 has converged
Solution for report definition ns_m4 has converged
   166  3.5288e-04  5.7969e-05  1.1630e-04  5.1959e-05  1.9058e-14  1.4275e-04  2.2877e-05  1.9016e-03  2.5012e-05  0.0000e+00  5.4621e-07  3.1973e-07  5.7105e+00  0:28:19  334
Solution for report definition mwtph_m1 has converged
Solution for report definition mf_m2 has converged
Solution for report definition mf_m3 has converged
Solution for report definition ns_m4 has converged
   167  3.4971e-04  5.8865e-05  1.1642e-04  5.1393e-05  1.9028e-14  1.4443e-04  2.2973e-05  2.5506e-03  3.5851e-05  0.0000e+00  1.0781e-06  6.1875e-07  3.6528e+00  0:27:02  333
Solution for report definition mwtph_m1 has converged
Solution for report definition mf_m2 has converged
Solution for report definition mf_m3 has converged
Solution for report definition ns_m4 has converged
   168  3.5248e-04  5.8710e-05  1.1514e-04  5.0999e-05  1.9007e-14  1.4365e-04  2.3329e-05  3.1391e-03  4.7020e-05  0.0000e+00  8.7394e-07  6.8690e-07  1.1994e+00  0:27:06  332
Solution for report definition mwtph_m1 has converged
Solution for report definition mf_m2 has converged
Solution for report definition mf_m3 has converged
Solution for report definition ns_m4 has converged
   169  3.5633e-04  5.7370e-05  1.1279e-04  5.1218e-05  1.8975e-14  1.4156e-04  2.3873e-05  3.6311e-03  5.7328e-05  0.0000e+00  7.6361e-07  7.5105e-07  6.3281e-01  0:27:08  331
Solution for report definition mwtph_m1 has converged
Solution for report definition mf_m2 has converged
Solution for report definition mf_m3 has converged
Solution for report definition ns_m4 has converged
   170  3.5606e-04  5.6079e-05  1.0944e-04  5.1134e-05  1.8980e-14  1.3754e-04  2.4158e-05  3.8794e-03  6.5241e-05  0.0000e+00  1.0230e-06  9.6641e-07  2.4227e+00  0:26:02  330
Solution for report definition mwtph_m1 has converged
Solution for report definition mf_m2 has converged
Solution for report definition mf_m3 has converged
Solution for report definition ns_m4 has converged
   171  3.5149e-04  5.3993e-05  1.0591e-04  5.1205e-05  1.8961e-14  1.3191e-04  2.3996e-05  3.8909e-03  6.7075e-05  0.0000e+00  1.2812e-06  1.2438e-06  1.2559e+00  0:25:09  329
Solution for report definition mwtph_m1 has converged
Solution for report definition mf_m2 has converged
Solution for report definition mf_m3 has converged
Solution for report definition ns_m4 has converged
   172  3.4427e-04  5.1704e-05  1.0336e-04  5.1106e-05  1.8904e-14  1.2707e-04  2.3559e-05  3.8289e-03  6.8140e-05  0.0000e+00  5.2370e-07  1.0506e-06  7.9893e-01  0:24:26  328
Solution for report definition mwtph_m1 has converged
Solution for report definition mf_m2 has converged
Solution for report definition mf_m3 has converged
Solution for report definition ns_m4 has converged
   173  3.3366e-04  5.0276e-05  1.0184e-04  5.0789e-05  1.8942e-14  1.2251e-04  2.3034e-05  3.5723e-03  6.5640e-05  0.0000e+00  2.7656e-07  8.0494e-07  7.7335e-01  0:24:56  327
Solution for report definition mwtph_m1 has converged
Solution for report definition mf_m2 has converged
Solution for report definition mf_m3 has converged
Solution for report definition ns_m4 has converged
[...]

 turbulent viscosity limited to viscosity ratio of 1.000000e+05 in 5327 cells 
Solution for report definition p_m0 has converged
Solution for report definition mwtph_m1 has converged
Solution for report definition mf_m2 has converged
Solution for report definition mf_m3 has converged
Solution for report definition ns_m4 has converged
   468  3.0112e-05  4.7246e-06  8.5599e-06  5.0655e-06  1.9040e-14  3.4388e-05  6.0913e-07  8.5154e-05  5.5218e-07  0.0000e+00  3.2738e-08  5.0880e-08  6.6410e-01  0:01:54   32

 turbulent viscosity limited to viscosity ratio of 1.000000e+05 in 5326 cells 
Solution for report definition p_m0 has converged
Solution for report definition mwtph_m1 has converged
Solution for report definition mf_m2 has converged
Solution for report definition mf_m3 has converged
Solution for report definition ns_m4 has converged
   469  2.8302e-05  4.7395e-06  8.4789e-06  4.9835e-06  1.9006e-14  3.5168e-05  5.9470e-07  1.1505e-04  7.8650e-07  0.0000e+00  1.5105e-08  4.1140e-08  3.7528e-01  0:01:53   31

 turbulent viscosity limited to viscosity ratio of 1.000000e+05 in 5326 cells 
Solution for report definition p_m0 has converged
Solution for report definition mwtph_m1 has converged
Solution for report definition mf_m2 has converged
Solution for report definition mf_m3 has converged
Solution for report definition ns_m4 has converged
   470  2.7158e-05  4.7776e-06  8.4890e-06  4.9043e-06  1.9083e-14  3.5139e-05  5.9586e-07  1.3639e-04  1.1359e-06  0.0000e+00  3.3547e-08  3.3637e-08  5.9407e-01  0:01:46   30

 turbulent viscosity limited to viscosity ratio of 1.000000e+05 in 5330 cells 
Solution for report definition p_m0 has converged
Solution for report definition mwtph_m1 has converged
Solution for report definition mf_m2 has converged
Solution for report definition mf_m3 has converged
Solution for report definition ns_m4 has converged
   471  2.6919e-05  4.8097e-06  8.5182e-06  4.8241e-06  1.9053e-14  3.4887e-05  5.9757e-07  1.5755e-04  1.7433e-06  0.0000e+00  4.0803e-08  2.2459e-08  4.9041e-01  0:01:45   29

 turbulent viscosity limited to viscosity ratio of 1.000000e+05 in 5331 cells 
Solution for report definition p_m0 has converged
Solution for report definition mwtph_m1 has converged
Solution for report definition mf_m2 has converged
Solution for report definition mf_m3 has converged
Solution for report definition ns_m4 has converged
   472  2.7473e-05  4.8191e-06  8.5176e-06  4.7693e-06  1.9064e-14  3.5481e-05  5.9921e-07  1.7442e-04  2.3315e-06  0.0000e+00  3.8054e-08  8.8591e-09  4.5924e-01  0:01:44   28

 turbulent viscosity limited to viscosity ratio of 1.000000e+05 in 5332 cells 
Solution for report definition p_m0 has converged
Solution for report definition mwtph_m1 has converged
Solution for report definition mf_m2 has converged
Solution for report definition mf_m3 has converged
Solution for report definition ns_m4 has converged
   473  2.8517e-05  4.7892e-06  8.4728e-06  4.7649e-06  1.9072e-14  3.5574e-05  6.0382e-07  1.8021e-04  2.6817e-06  0.0000e+00  5.1562e-08  1.1869e-08  8.4702e-01  0:01:41   27

 turbulent viscosity limited to viscosity ratio of 1.000000e+05 in 5329 cells 

  iter  continuity  x-velocity  y-velocity  z-velocity      energy           k       omega  report-con  report-con  report-con  report-con  report-con  report-con     time/iter
Solution for report definition p_m0 has converged
Solution for report definition mwtph_m1 has converged
Solution for report definition mf_m2 has converged
Solution for report definition mf_m3 has converged
Solution for report definition ns_m4 has converged
   474  2.9621e-05  4.7163e-06  8.3832e-06  4.8020e-06  1.9058e-14  3.4713e-05  6.0424e-07  1.8073e-04  2.8899e-06  0.0000e+00  4.3889e-08  1.3984e-08  6.8889e-01  0:01:39   26

 turbulent viscosity limited to viscosity ratio of 1.000000e+05 in 5331 cells 
Solution for report definition p_m0 has converged
Solution for report definition mwtph_m1 has converged
Solution for report definition mf_m2 has converged
Solution for report definition mf_m3 has converged
Solution for report definition ns_m4 has converged
   475  3.0455e-05  4.6583e-06  8.2626e-06  4.8602e-06  1.9026e-14  3.5519e-05  5.9330e-07  1.7662e-04  3.0184e-06  0.0000e+00  4.3471e-08  1.9600e-08  6.3880e-01  0:01:31   25

 turbulent viscosity limited to viscosity ratio of 1.000000e+05 in 5330 cells 
Solution for report definition p_m0 has converged
Solution for report definition mwtph_m1 has converged
Solution for report definition mf_m2 has converged
Solution for report definition mf_m3 has converged
Solution for report definition ns_m4 has converged
   476  3.0723e-05  4.6029e-06  8.1316e-06  4.8778e-06  1.9049e-14  3.5166e-05  6.0997e-07  1.6067e-04  2.7690e-06  0.0000e+00  2.7641e-08  1.6764e-08  1.9828e-01  0:01:29   24

 turbulent viscosity limited to viscosity ratio of 1.000000e+05 in 5335 cells 
Solution for report definition p_m0 has converged
Solution for report definition mwtph_m1 has converged
Solution for report definition mf_m2 has converged
Solution for report definition mf_m3 has converged
Solution for report definition ns_m4 has converged
   477  3.0301e-05  4.5622e-06  7.9557e-06  4.8499e-06  1.9037e-14  3.4706e-05  6.0455e-07  1.3784e-04  2.3400e-06  0.0000e+00  4.0483e-08  2.3247e-08  2.0164e-01  0:01:27   23

 turbulent viscosity limited to viscosity ratio of 1.000000e+05 in 5328 cells 
Solution for report definition p_m0 has converged
Solution for report definition mwtph_m1 has converged
Solution for report definition mf_m2 has converged
Solution for report definition mf_m3 has converged
Solution for report definition ns_m4 has converged
   478  2.9278e-05  4.5303e-06  7.8163e-06  4.7697e-06  1.9021e-14  3.4912e-05  6.0317e-07  1.1418e-04  1.8836e-06  0.0000e+00  3.6578e-08  2.8435e-08  1.1497e-01  0:01:20   22

 turbulent viscosity limited to viscosity ratio of 1.000000e+05 in 5328 cells 
Solution for report definition p_m0 has converged
Solution for report definition mwtph_m1 has converged
Solution for report definition mf_m2 has converged
Solution for report definition mf_m3 has converged
Solution for report definition ns_m4 has converged
   479  2.7826e-05  4.5050e-06  7.7528e-06  4.6766e-06  1.9033e-14  3.5995e-05  6.2261e-07  8.4350e-05  1.2349e-06  0.0000e+00  4.2696e-08  3.7453e-08  7.6149e-01  0:01:18   21

 turbulent viscosity limited to viscosity ratio of 1.000000e+05 in 5319 cells 
Solution for report definition p_m0 has converged
Solution for report definition mwtph_m1 has converged
Solution for report definition mf_m2 has converged
Solution for report definition mf_m3 has converged
Solution for report definition ns_m4 has converged
   480  2.6217e-05  4.4896e-06  7.7603e-06  4.5731e-06  1.8979e-14  3.4528e-05  6.1474e-07  5.3974e-05  4.7162e-07  0.0000e+00  4.4298e-08  4.1532e-08  2.8928e+00  0:01:11   20

 turbulent viscosity limited to viscosity ratio of 1.000000e+05 in 5318 cells 
Solution for report definition p_m0 has converged
Solution for report definition mwtph_m1 has converged
Solution for report definition mf_m2 has converged
Solution for report definition mf_m3 has converged
Solution for report definition ns_m4 has converged
   481  2.4845e-05  4.4985e-06  7.8296e-06  4.4748e-06  1.9003e-14  3.4465e-05  5.9759e-07  2.8805e-05  5.9714e-07  0.0000e+00  3.5086e-08  4.7300e-08  2.9726e+00  0:01:09   19

 turbulent viscosity limited to viscosity ratio of 1.000000e+05 in 5316 cells 
Solution for report definition p_m0 has converged
Solution for report definition mwtph_m1 has converged
Solution for report definition mf_m2 has converged
Solution for report definition mf_m3 has converged
Solution for report definition ns_m4 has converged
   482  2.4103e-05  4.5112e-06  7.9402e-06  4.3938e-06  1.9026e-14  3.4518e-05  5.9563e-07  1.5240e-05  1.0362e-06  0.0000e+00  4.1046e-08  3.1243e-08  8.9672e-01  0:01:07   18

 turbulent viscosity limited to viscosity ratio of 1.000000e+05 in 5316 cells 
Solution for report definition p_m0 has converged
Solution for report definition mwtph_m1 has converged
Solution for report definition mf_m2 has converged
Solution for report definition mf_m3 has converged
Solution for report definition ns_m4 has converged
   483  2.4184e-05  4.5210e-06  8.0680e-06  4.3324e-06  1.9030e-14  3.4525e-05  5.9025e-07  3.0160e-05  1.6514e-06  0.0000e+00  3.9118e-08  2.0446e-08  6.2259e-01  0:01:04   17

 turbulent viscosity limited to viscosity ratio of 1.000000e+05 in 5317 cells 
Solution for report definition p_m0 has converged
Solution for report definition mwtph_m1 has converged
Solution for report definition mf_m2 has converged
Solution for report definition mf_m3 has converged
Solution for report definition ns_m4 has converged
   484  2.5014e-05  4.5276e-06  8.1889e-06  4.3058e-06  1.9026e-14  3.4535e-05  5.9044e-07  4.1648e-05  2.1462e-06  0.0000e+00  5.6308e-08  1.8200e-08  6.5738e-01  0:00:58   16

 turbulent viscosity limited to viscosity ratio of 1.000000e+05 in 5314 cells 

  iter  continuity  x-velocity  y-velocity  z-velocity      energy           k       omega  report-con  report-con  report-con  report-con  report-con  report-con     time/iter
Solution for report definition p_m0 has converged
Solution for report definition mwtph_m1 has converged
Solution for report definition mf_m2 has converged
Solution for report definition mf_m3 has converged
Solution for report definition ns_m4 has converged
   485  2.6332e-05  4.5281e-06  8.2815e-06  4.3113e-06  1.9018e-14  3.4647e-05  5.9781e-07  5.3938e-05  2.6106e-06  0.0000e+00  3.3519e-08  9.4965e-09  6.6737e-01  0:00:55   15

 turbulent viscosity limited to viscosity ratio of 1.000000e+05 in 5311 cells 
Solution for report definition p_m0 has converged
Solution for report definition mwtph_m1 has converged
Solution for report definition mf_m2 has converged
Solution for report definition mf_m3 has converged
Solution for report definition ns_m4 has converged
   486  2.7803e-05  4.5018e-06  8.3323e-06  4.3500e-06  1.9021e-14  3.4491e-05  5.9052e-07  6.1168e-05  2.9272e-06  0.0000e+00  3.2927e-08  1.1205e-08  7.6164e-01  0:00:53   14

 turbulent viscosity limited to viscosity ratio of 1.000000e+05 in 5308 cells 
Solution for report definition p_m0 has converged
Solution for report definition mwtph_m1 has converged
Solution for report definition mf_m2 has converged
Solution for report definition mf_m3 has converged
Solution for report definition ns_m4 has converged
   487  2.9111e-05  4.4738e-06  8.3305e-06  4.4093e-06  1.9015e-14  3.4516e-05  6.0377e-07  5.7759e-05  2.9377e-06  0.0000e+00  2.5932e-08  6.6702e-09  3.9414e-01  0:00:47   13

 turbulent viscosity limited to viscosity ratio of 1.000000e+05 in 5309 cells 
Solution for report definition p_m0 has converged
Solution for report definition mwtph_m1 has converged
Solution for report definition mf_m2 has converged
Solution for report definition mf_m3 has converged
Solution for report definition ns_m4 has converged
   488  3.0025e-05  4.4440e-06  8.2745e-06  4.4611e-06  1.9008e-14  3.4214e-05  5.9048e-07  4.4518e-05  2.6911e-06  0.0000e+00  3.4980e-08  1.4140e-08  7.9512e-01  0:00:44   12

 turbulent viscosity limited to viscosity ratio of 1.000000e+05 in 5309 cells 
Solution for report definition p_m0 has converged
Solution for report definition mwtph_m1 has converged
Solution for report definition mf_m2 has converged
Solution for report definition mf_m3 has converged
Solution for report definition ns_m4 has converged
   489  3.0368e-05  4.3863e-06  8.1856e-06  4.4932e-06  1.9031e-14  3.4454e-05  6.0741e-07  2.9327e-05  2.4238e-06  0.0000e+00  5.6721e-08  2.8748e-08  3.8007e-01  0:00:41   11

 turbulent viscosity limited to viscosity ratio of 1.000000e+05 in 5312 cells 
Solution for report definition p_m0 has converged
Solution for report definition mwtph_m1 has converged
Solution for report definition mf_m2 has converged
Solution for report definition mf_m3 has converged
Solution for report definition ns_m4 has converged
   490  3.0111e-05  4.3118e-06  8.0883e-06  4.4974e-06  1.9020e-14  3.4904e-05  5.9350e-07  1.2997e-05  1.7671e-06  0.0000e+00  6.5404e-08  4.1128e-08  5.4517e-01  0:00:36   10

 turbulent viscosity limited to viscosity ratio of 1.000000e+05 in 5315 cells 
Solution for report definition p_m0 has converged
Solution for report definition mwtph_m1 has converged
Solution for report definition mf_m2 has converged
Solution for report definition mf_m3 has converged
Solution for report definition ns_m4 has converged
   491  2.9310e-05  4.2820e-06  8.0234e-06  4.4791e-06  1.9014e-14  3.5032e-05  6.0201e-07  2.6813e-05  1.1268e-06  0.0000e+00  5.2309e-08  4.6509e-08  2.9013e-01  0:00:33    9

 turbulent viscosity limited to viscosity ratio of 1.000000e+05 in 5319 cells 
Solution for report definition p_m0 has converged
Solution for report definition mwtph_m1 has converged
Solution for report definition mf_m2 has converged
Solution for report definition mf_m3 has converged
Solution for report definition ns_m4 has converged
   492  2.8118e-05  4.2916e-06  8.0055e-06  4.4478e-06  1.9053e-14  3.4228e-05  5.9928e-07  3.9377e-05  6.3619e-07  0.0000e+00  2.9622e-08  3.2146e-08  3.8956e-01  0:00:28    8

 turbulent viscosity limited to viscosity ratio of 1.000000e+05 in 5316 cells 
Solution for report definition p_m0 has converged
Solution for report definition mwtph_m1 has converged
Solution for report definition mf_m2 has converged
Solution for report definition mf_m3 has converged
Solution for report definition ns_m4 has converged
   493  2.6753e-05  4.3279e-06  8.0404e-06  4.4112e-06  1.9018e-14  3.5540e-05  6.0570e-07  6.7416e-05  4.9702e-07  0.0000e+00  2.6867e-08  3.6035e-08  2.7961e-01  0:00:25    7

 turbulent viscosity limited to viscosity ratio of 1.000000e+05 in 5317 cells 
Solution for report definition p_m0 has converged
Solution for report definition mwtph_m1 has converged
Solution for report definition mf_m2 has converged
Solution for report definition mf_m3 has converged
Solution for report definition ns_m4 has converged
   494  2.5513e-05  4.3699e-06  8.1138e-06  4.3567e-06  1.9041e-14  3.4978e-05  6.1446e-07  9.3773e-05  1.0533e-06  0.0000e+00  1.9025e-08  2.5936e-08  5.6925e-01  0:00:22    6

 turbulent viscosity limited to viscosity ratio of 1.000000e+05 in 5319 cells 
Solution for report definition p_m0 has converged
Solution for report definition mwtph_m1 has converged
Solution for report definition mf_m2 has converged
Solution for report definition mf_m3 has converged
Solution for report definition ns_m4 has converged
   495  2.4683e-05  4.4270e-06  8.1902e-06  4.3120e-06  1.9029e-14  3.4400e-05  5.9786e-07  1.1480e-04  1.6169e-06  0.0000e+00  2.8754e-08  1.1140e-08  7.6916e-01  0:00:18    5

 turbulent viscosity limited to viscosity ratio of 1.000000e+05 in 5322 cells 

  iter  continuity  x-velocity  y-velocity  z-velocity      energy           k       omega  report-con  report-con  report-con  report-con  report-con  report-con     time/iter
Solution for report definition p_m0 has converged
Solution for report definition mwtph_m1 has converged
Solution for report definition mf_m2 has converged
Solution for report definition mf_m3 has converged
Solution for report definition ns_m4 has converged
   496  2.4466e-05  4.4745e-06  8.2271e-06  4.2910e-06  1.9073e-14  3.4856e-05  5.9128e-07  1.4092e-04  2.3365e-06  0.0000e+00  3.2880e-08  2.6120e-08  4.6284e-01  0:00:15    4

 turbulent viscosity limited to viscosity ratio of 1.000000e+05 in 5324 cells 
Solution for report definition p_m0 has converged
Solution for report definition mwtph_m1 has converged
Solution for report definition mf_m2 has converged
Solution for report definition mf_m3 has converged
Solution for report definition ns_m4 has converged
   497  2.4861e-05  4.4948e-06  8.1859e-06  4.2848e-06  1.9020e-14  3.5013e-05  6.0103e-07  1.5374e-04  2.7844e-06  0.0000e+00  2.9752e-08  2.0573e-08  3.0357e-01  0:00:11    3

 turbulent viscosity limited to viscosity ratio of 1.000000e+05 in 5326 cells 
Solution for report definition p_m0 has converged
Solution for report definition mwtph_m1 has converged
Solution for report definition mf_m2 has converged
Solution for report definition mf_m3 has converged
Solution for report definition ns_m4 has converged
   498  2.5596e-05  4.4857e-06  8.1329e-06  4.2918e-06  1.9050e-14  3.4343e-05  5.9733e-07  1.5225e-04  2.8278e-06  0.0000e+00  4.0779e-08  1.2725e-08  3.9919e-01  0:00:07    2

 turbulent viscosity limited to viscosity ratio of 1.000000e+05 in 5324 cells 
Solution for report definition p_m0 has converged
Solution for report definition mwtph_m1 has converged
Solution for report definition mf_m2 has converged
Solution for report definition mf_m3 has converged
Solution for report definition ns_m4 has converged
   499  2.6348e-05  4.4509e-06  8.0435e-06  4.3082e-06  1.9077e-14  3.4444e-05  5.9828e-07  1.4557e-04  2.6629e-06  0.0000e+00  6.4203e-08  2.7483e-08  3.4589e-01  0:00:04    1

 turbulent viscosity limited to viscosity ratio of 1.000000e+05 in 5324 cells 
Solution for report definition p_m0 has converged
Solution for report definition mwtph_m1 has converged
Solution for report definition mf_m2 has converged
Solution for report definition mf_m3 has converged
Solution for report definition ns_m4 has converged
   500  2.6798e-05  4.3935e-06  7.9356e-06  4.3194e-06  1.9081e-14  3.4501e-05  5.9843e-07  1.4124e-04  2.5484e-06  0.0000e+00  5.1922e-08  2.8924e-08  6.0145e-01  0:00:00    0

Calculation complete.
(cx-gui-do cx-activate-item "Information*OK")
(cx-gui-do cx-set-list-tree-selections "NavigationPane*Frame2*Table1*List_Tree2" (list "Results|Graphics|Contours|velocity-contour"))
(cx-gui-do cx-set-list-tree-selections "NavigationPane*Frame2*Table1*List_Tree2" (list "Results|Graphics|Contours|velocity-contour"))
(cx-gui-do cx-activate-item "NavigationPane*Frame2*Table1*List_Tree2")
(cx-gui-do cx-set-list-tree-selections "NavigationPane*Frame2*Table1*List_Tree2" (list "Results|Graphics|Contours|velocity-contour"))
(cx-gui-do cx-activate-item "Contours*PanelButtons*PushButton1(OK)")
(cx-use-window-id 51)
(cx-set-camera-relative '(0.174323 -0.0659021 -0.0187942) '(0 0 0) '(-0.267375 -0.611241 -0.333546) 0 0)
(cx-use-window-id 51)
(cx-set-camera-relative '(0.122101 -0.168621 -0.117878) '(0 0 0) '(-0.480492 -0.248597 -0.143011) 0 0)
(cx-use-window-id 51)
(cx-set-camera-relative '(-0.0511495 0.136611 -0.220511) '(0 0 0) '(0.0273211 -0.00121617 0.0172839) 0 0)
(cx-gui-do cx-set-list-tree-selections "NavigationPane*Frame2*Table1*List_Tree2" (list "Results|Graphics|Contours|pressure-contour"))
(cx-gui-do cx-set-list-tree-selections "NavigationPane*Frame2*Table1*List_Tree2" (list "Results|Graphics|Contours|pressure-contour"))
(cx-gui-do cx-activate-item "NavigationPane*Frame2*Table1*List_Tree2")
(cx-gui-do cx-set-list-tree-selections "NavigationPane*Frame2*Table1*List_Tree2" (list "Results|Graphics|Contours|pressure-contour"))
(cx-gui-do cx-activate-item "Contours*PanelButtons*PushButton1(OK)")
(cx-use-window-id 51)
(cx-set-camera-relative '(-0.0509074 0.0969419 -0.00426811) '(0 0 0) '(0.113181 0.0588644 -0.019949) 0 0)
(cx-use-window-id 51)
(cx-set-camera-relative '(0.0911004 -0.207416 0.0310097) '(0 0 0) '(-0.232892 -0.0961753 0.0322234) 0 0)
(cx-use-window-id 51)
(cx-set-camera-relative '(-0.00208187 -0.0376508 -0.0531796) '(0 0 0) '(-0.127656 -0.0258248 0.0240678) 0 0)
(cx-gui-do cx-activate-item "ToolBar*View*isometric")
(cx-gui-do cx-activate-item "MenuBar*PopupMenuModel-View*From +Y Direction")
(cx-use-window-id 51)
(cx-set-camera-relative '(-0.878111 -0.507033 -0.0617143) '(0 0 0) '(0.00157072 0.12265 -0.00754541) 0 0)
(cx-use-window-id 51)
(cx-set-camera-relative '(-0.131115 -0.538596 0.189402) '(0 0 0) '(0.119412 0.0056456 -0.00811803) 0 0)
(cx-gui-do cx-activate-item "Contours*PanelButtons*PushButton2(Cancel)")
(cx-gui-do cx-activate-item "MenuBar*WriteSubMenu*Case & Data...")
