Auto-Transcript Start Time:  07:16:07, 17 Apr 2025 GMT Daylight Time 
Current Directory: "C:\Users\cvest\Claudio\Oxford\3rd Year\B3\CubeSat_project\Claudio\Aerothermal\CFD\2d Sim"

              Welcome to ANSYS Fluent 2024 R2

              Copyright 1987-2024 ANSYS, Inc. All Rights Reserved.
              Unauthorized use, distribution or duplication is prohibited.
              This product is subject to U.S. laws governing export and re-export.
              For full Legal Notice, see documentation.

Build Time: May 13 2024 11:28:30 EST  Build Id: 10192  
 
Connected License Server List:	<Shared_Web_License_Server>

     --------------------------------------------------------------
     This is a student version of ANSYS FLUENT. Usage of this product
     license is limited to the terms and conditions specified in your ANSYS
     license form, additional terms section.
     --------------------------------------------------------------
Host spawning Node 0 on machine "ClouDsBlade14" (win64).

-----------------------------------------------------------------------------------------
ID    Hostname       Core  O.S.         PID    Vendor                                   
-----------------------------------------------------------------------------------------
n3    ClouDsBlade14  4/16  Windows-x64  30136  AMD Ryzen 9 5900HX with Radeon Graphics  
n2    ClouDsBlade14  3/16  Windows-x64  16092  AMD Ryzen 9 5900HX with Radeon Graphics  
n1    ClouDsBlade14  2/16  Windows-x64  29516  AMD Ryzen 9 5900HX with Radeon Graphics  
n0*   ClouDsBlade14  1/16  Windows-x64  27112  AMD Ryzen 9 5900HX with Radeon Graphics  
host  ClouDsBlade14        Windows-x64  15864  AMD Ryzen 9 5900HX with Radeon Graphics  

MPI Option Selected: intel
Selected system interconnect: default
-----------------------------------------------------------------------------------------

Cleanup script file is C:\\Users\\cvest\\Claudio\\Oxford\\3rd Year\\B3\\CubeSat_project\\Claudio\\Aerothermal\\CFD\\2d Sim\\cleanup-fluent-ClouDsBlade14-15864.bat

Posting ANSYS Product Improvement Program startup data
Done.

> (cx-gui-do cx-activate-item "MenuBar*ReadSubMenu*Case & Data...")
(cx-gui-do cx-set-file-dialog-entries "Select File" '( "C:/Users/cvest/Claudio/Oxford/3rd Year/B3/CubeSat_project/Claudio/Aerothermal/CFD/2d Sim/No Refinement/With new many axes/FFF.cas.h5") "CFF Case Files (*.cas.h5 )")
Fast-loading "C:\PROGRA~1\ANSYSI~1\ANSYSS~1\v242\fluent\fluent24.2.0\\addons\afd\lib\hdfio.bin"
Done.
Multicore SMT processors detected. Processor affinity set!

Reading from ClouDsBlade14:"C:/Users/cvest/Claudio/Oxford/3rd Year/B3/CubeSat_project/Claudio/Aerothermal/CFD/2d Sim/No Refinement/With new many axes/FFF.cas.h5" in NODE0 mode ...
  Reading mesh ...
       47868 cells,     1 cell zone  ...
          47868 mixed cells,  zone id: 2
       80352 faces,     3 face zones ...
          79252 2D interior faces,  zone id: 1
            300 2D pressure-far-field faces,  zone id: 5
            800 2D wall faces,  zone id: 6
       32484 nodes,     1 node zone  ...
  Done.


Building...
     mesh
	distributing mesh
		parts....,
		faces....,
		nodes....,
		cells....,
        bandwidth reduction using Reverse Cuthill-McKee: 11271/147 = 76.6735
     materials,
     interface,
     domains,
	mixture
     zones,
	interior-surface_body
	walls
	pressure_far_field
	surface_body
     parallel,
Done.

Reading from ClouDsBlade14:"C:/Users/cvest/Claudio/Oxford/3rd Year/B3/CubeSat_project/Claudio/Aerothermal/CFD/2d Sim/No Refinement/With new many axes/FFF.dat.h5" in NODE0 mode ...


  Reading results.
Parallel variables...
Done.
(cx-gui-do cx-set-list-tree-selections "NavigationPane*Frame2*Table1*List_Tree2" (list "Results|Graphics|Contours"))
(cx-gui-do cx-set-list-tree-selections "NavigationPane*Frame2*Table1*List_Tree2" (list "Results|Graphics|Contours"))
(cx-gui-do cx-activate-item "NavigationPane*Frame2*Table1*List_Tree2")
(cx-gui-do cx-set-list-tree-selections "NavigationPane*Frame2*Table1*List_Tree2" (list "Results|Graphics|Contours"))
(cx-gui-do cx-activate-item "Contours*PanelButtons*PushButton2(Cancel)")
(cx-gui-do cx-set-list-tree-selections "NavigationPane*Frame2*Table1*List_Tree2" (list "Results|Graphics|Contours|temperature"))
(cx-gui-do cx-set-list-tree-selections "NavigationPane*Frame2*Table1*List_Tree2" (list "Results|Graphics|Contours|pressure"))
(cx-gui-do cx-set-list-tree-selections "NavigationPane*Frame2*Table1*List_Tree2" (list "Results|Graphics|Contours|pressure"))
(cx-gui-do cx-activate-item "NavigationPane*Frame2*Table1*List_Tree2")
(cx-gui-do cx-set-list-tree-selections "NavigationPane*Frame2*Table1*List_Tree2" (list "Results|Graphics|Contours|pressure"))
(cx-gui-do cx-activate-item "Contours*PanelButtons*PushButton1(OK)")

Enabling Lighting so that contour lines are visible.
(cx-gui-do cx-activate-item "Contours*PanelButtons*PushButton2(Cancel)")
(cx-gui-do cx-activate-item "ToolBar*Pointer*translate")
(cx-use-window-id 51)
(dolly-camera 0.0372727 -0.166706 0)
(cx-use-window-id 51)
(dolly-camera 0.0362743 0.105467 0)
(cx-use-window-id 51)
(dolly-camera 0.00199678 -0.0453623 0)
(cx-gui-do cx-set-list-tree-selections "NavigationPane*Frame2*Table1*List_Tree2" (list "Setup|Boundary Conditions|Inlet|pressure_far_field (pressure-far-field, id=5)"))
(cx-gui-do cx-set-list-tree-selections "NavigationPane*Frame2*Table1*List_Tree2" (list "Setup|Boundary Conditions|Inlet|pressure_far_field (pressure-far-field, id=5)"))
(cx-gui-do cx-activate-item "NavigationPane*Frame2*Table1*List_Tree2")
(cx-gui-do cx-set-list-tree-selections "NavigationPane*Frame2*Table1*List_Tree2" (list "Setup|Boundary Conditions|Inlet|pressure_far_field (pressure-far-field, id=5)"))
(cx-gui-do cx-activate-tab-index "Pressure Far-Field*Frame3" 0)
(cx-gui-do cx-activate-tab-index "Pressure Far-Field*Frame3" 1)
(cx-gui-do cx-activate-tab-index "Pressure Far-Field*Frame3" 0)
(cx-gui-do cx-activate-tab-index "Pressure Far-Field*Frame3" 2)
(cx-gui-do cx-activate-tab-index "Pressure Far-Field*Frame3" 0)
(cx-gui-do cx-activate-tab-index "Pressure Far-Field*Frame3" 3)
(cx-gui-do cx-activate-tab-index "Pressure Far-Field*Frame3" 0)
(cx-gui-do cx-activate-tab-index "Pressure Far-Field*Frame3" 4)
(cx-gui-do cx-activate-tab-index "Pressure Far-Field*Frame3" 0)
(cx-gui-do cx-activate-tab-index "Pressure Far-Field*Frame3" 5)
(cx-gui-do cx-activate-tab-index "Pressure Far-Field*Frame3" 0)
(cx-gui-do cx-activate-tab-index "Pressure Far-Field*Frame3" 6)
(cx-gui-do cx-activate-tab-index "Pressure Far-Field*Frame3" 0)
(cx-gui-do cx-activate-tab-index "Pressure Far-Field*Frame3" 7)
(cx-gui-do cx-activate-tab-index "Pressure Far-Field*Frame3" 0)
(cx-gui-do cx-enable-apply-button "Pressure Far-Field")
(cx-gui-do cx-set-expression-entry "Pressure Far-Field*Frame3*Frame1(Momentum)*Table1*Table11*ExpressionEntry1(Gauge Pressure)" '("900000" . 0))
(cx-gui-do cx-set-expression-entry "Pressure Far-Field*Frame3*Frame1(Momentum)*Table1*Table11*ExpressionEntry1(Gauge Pressure)" '("1584.24" . 0))
(cx-gui-do cx-activate-item "Pressure Far-Field*PanelButtons*PushButton1(OK)")
(cx-gui-do cx-activate-item "Pressure Far-Field*PanelButtons*PushButton2(Cancel)")
(cx-gui-do cx-set-list-tree-selections "NavigationPane*Frame2*Table1*List_Tree2" (list "Setup|Boundary Conditions"))
(cx-gui-do cx-set-list-tree-selections "NavigationPane*Frame2*Table1*List_Tree2" (list "Setup|Boundary Conditions"))
(cx-gui-do cx-activate-item "NavigationPane*Frame2*Table1*List_Tree2")
(cx-gui-do cx-set-list-tree-selections "NavigationPane*Frame2*Table1*List_Tree2" (list "Setup|Boundary Conditions"))
(cx-gui-do cx-set-list-tree-selections "NavigationPane*Frame2*Table1*List_Tree2" (list "Setup|Boundary Conditions|Wall|walls (wall, id=6)"))
(cx-gui-do cx-set-list-tree-selections "NavigationPane*Frame2*Table1*List_Tree2" (list "Setup|Boundary Conditions|Wall|walls (wall, id=6)"))
(cx-gui-do cx-activate-item "NavigationPane*Frame2*Table1*List_Tree2")
(cx-gui-do cx-set-list-tree-selections "NavigationPane*Frame2*Table1*List_Tree2" (list "Setup|Boundary Conditions|Wall|walls (wall, id=6)"))
(cx-gui-do cx-activate-tab-index "Wall*Frame4" 0)
(cx-gui-do cx-activate-tab-index "Wall*Frame4" 1)
(cx-gui-do cx-activate-tab-index "Wall*Frame4" 0)
(cx-gui-do cx-activate-tab-index "Wall*Frame4" 2)
(cx-gui-do cx-activate-tab-index "Wall*Frame4" 0)
(cx-gui-do cx-activate-tab-index "Wall*Frame4" 3)
(cx-gui-do cx-activate-tab-index "Wall*Frame4" 0)
(cx-gui-do cx-activate-tab-index "Wall*Frame4" 4)
(cx-gui-do cx-activate-tab-index "Wall*Frame4" 0)
(cx-gui-do cx-activate-tab-index "Wall*Frame4" 5)
(cx-gui-do cx-activate-tab-index "Wall*Frame4" 0)
(cx-gui-do cx-activate-tab-index "Wall*Frame4" 6)
(cx-gui-do cx-activate-tab-index "Wall*Frame4" 0)
(cx-gui-do cx-activate-tab-index "Wall*Frame4" 7)
(cx-gui-do cx-activate-tab-index "Wall*Frame4" 0)
(cx-gui-do cx-activate-tab-index "Wall*Frame4" 8)
(cx-gui-do cx-activate-tab-index "Wall*Frame4" 0)
(cx-gui-do cx-activate-tab-index "Wall*Frame4" 9)
(cx-gui-do cx-activate-tab-index "Wall*Frame4" 0)
(cx-gui-do cx-activate-tab-index "Wall*Frame4" 10)
(cx-gui-do cx-activate-tab-index "Wall*Frame4" 0)
(cx-gui-do cx-activate-tab-index "Wall*Frame4*Frame8(Wall Film)*Frame1*Frame2" 0)
(cx-gui-do cx-activate-tab-index "Wall*Frame4*Frame8(Wall Film)*Frame1*Frame2" 1)
(cx-gui-do cx-activate-tab-index "Wall*Frame4*Frame8(Wall Film)*Frame1*Frame2" 0)
(cx-gui-do cx-activate-tab-index "Wall*Frame4*Frame8(Wall Film)*Frame1*Frame2" 2)
(cx-gui-do cx-activate-tab-index "Wall*Frame4*Frame8(Wall Film)*Frame1*Frame2" 0)
(cx-gui-do cx-activate-tab-index "Wall*Frame4*Frame8(Wall Film)*Frame1*Frame2" 3)
(cx-gui-do cx-activate-tab-index "Wall*Frame4*Frame8(Wall Film)*Frame1*Frame2" 0)
(cx-gui-do cx-activate-tab-index "Wall*Frame4*Frame8(Wall Film)*Frame1*Frame2" 4)
(cx-gui-do cx-activate-tab-index "Wall*Frame4*Frame8(Wall Film)*Frame1*Frame2" 0)
(cx-gui-do cx-activate-tab-index "Wall*Frame4*Frame8(Wall Film)*Frame1*Frame2" 5)
(cx-gui-do cx-activate-tab-index "Wall*Frame4*Frame8(Wall Film)*Frame1*Frame2" 0)
(cx-gui-do cx-activate-tab-index "Wall*Frame4" 1)
(cx-gui-do cx-enable-apply-button "Wall")
(cx-gui-do cx-set-toggle-button2 "Wall*Frame4*Frame2(Thermal)*Frame1*Frame1(Thermal Conditions)*ToggleBox1*Temperature" #t)
(cx-gui-do cx-activate-item "Wall*Frame4*Frame2(Thermal)*Frame1*Frame1(Thermal Conditions)*ToggleBox1*Temperature")
(cx-gui-do cx-activate-item "Wall*PanelButtons*PushButton1(OK)")
(cx-gui-do cx-activate-item "Wall*PanelButtons*PushButton2(Cancel)")
(cx-gui-do cx-set-list-tree-selections "NavigationPane*Frame2*Table1*List_Tree2" (list "Setup|Boundary Conditions|Inlet|pressure_far_field (pressure-far-field, id=5)"))
(cx-gui-do cx-set-list-tree-selections "NavigationPane*Frame2*Table1*List_Tree2" (list "Setup|Boundary Conditions|Inlet|pressure_far_field (pressure-far-field, id=5)"))
(cx-gui-do cx-activate-item "NavigationPane*Frame2*Table1*List_Tree2")
(cx-gui-do cx-set-list-tree-selections "NavigationPane*Frame2*Table1*List_Tree2" (list "Setup|Boundary Conditions|Inlet|pressure_far_field (pressure-far-field, id=5)"))
(cx-gui-do cx-activate-item "Pressure Far-Field*PanelButtons*PushButton2(Cancel)")
(cx-gui-do cx-set-list-tree-selections "NavigationPane*Frame2*Table1*List_Tree2" (list "Solution|Initialization"))
(cx-gui-do cx-set-list-tree-selections "NavigationPane*Frame2*Table1*List_Tree2" (list "Solution|Initialization"))
(cx-gui-do cx-activate-item "NavigationPane*Frame2*Table1*List_Tree2")
(cx-gui-do cx-set-list-tree-selections "NavigationPane*Frame2*Table1*List_Tree2" (list "Solution|Initialization"))
(cx-gui-do cx-set-list-selections "Solution Initialization*Table1*DropDownList1(Compute from)" '( 1))
(cx-gui-do cx-activate-item "Solution Initialization*Table1*DropDownList1(Compute from)")
(cx-gui-do cx-activate-item "Solution Initialization*Table1*Frame9*PushButton1(Initialize)")
(cx-gui-do cx-set-list-tree-selections "NavigationPane*Frame2*Table1*List_Tree2" (list "Setup|Boundary Conditions|Inlet|pressure_far_field (pressure-far-field, id=5)"))
(cx-gui-do cx-set-list-tree-selections "NavigationPane*Frame2*Table1*List_Tree2" (list "Setup|Boundary Conditions|Inlet|pressure_far_field (pressure-far-field, id=5)"))
(cx-gui-do cx-set-list-tree-selections "NavigationPane*Frame2*Table1*List_Tree2" (list "Setup|Boundary Conditions|Inlet|pressure_far_field (pressure-far-field, id=5)"))
(cx-gui-do cx-activate-item "NavigationPane*Frame2*Table1*List_Tree2")
(cx-gui-do cx-set-list-tree-selections "NavigationPane*Frame2*Table1*List_Tree2" (list "Setup|Boundary Conditions|Inlet|pressure_far_field (pressure-far-field, id=5)"))
(cx-gui-do cx-activate-tab-index "Pressure Far-Field*Frame3" 1)
(cx-gui-do cx-enable-apply-button "Pressure Far-Field")
(cx-gui-do cx-set-expression-entry "Pressure Far-Field*Frame3*Frame2(Thermal)*Table1*Table1*ExpressionEntry1(Temperature)" '("138" . 0))
(cx-gui-do cx-activate-item "Pressure Far-Field*PanelButtons*PushButton1(OK)")
(cx-gui-do cx-activate-item "Pressure Far-Field*PanelButtons*PushButton2(Cancel)")
(cx-gui-do cx-set-list-selections "Solution Initialization*Table1*DropDownList1(Compute from)" '( 1))
(cx-gui-do cx-activate-item "Solution Initialization*Table1*DropDownList1(Compute from)")
(cx-gui-do cx-activate-item "Solution Initialization*Table1*Frame9*PushButton1(Initialize)")
(cx-gui-do cx-activate-item "Question*OK")
(cx-gui-do cx-set-list-tree-selections "NavigationPane*Frame2*Table1*List_Tree2" (list "Solution|Run Calculation"))
(cx-gui-do cx-set-list-tree-selections "NavigationPane*Frame2*Table1*List_Tree2" (list "Solution|Run Calculation"))
(cx-gui-do cx-activate-item "NavigationPane*Frame2*Table1*List_Tree2")
(cx-gui-do cx-set-list-tree-selections "NavigationPane*Frame2*Table1*List_Tree2" (list "Solution|Run Calculation"))
(cx-gui-do cx-activate-item "Run Calculation*Table1*Table6(Solution Advancement)*Table1*PushButton1(Calculate)")

(cx-gui-do cx-activate-item "Question*OK")
Creating new file C:\Users\cvest\Claudio\Oxford\3rd Year\B3\CubeSat_project\Claudio\Aerothermal\CFD\2d Sim\No Refinement\With new many axes\.\\report-def-0-rfile_1_1.out

  iter  continuity  x-velocity  y-velocity      energy           k       omega     time/iter
 time step reduced in 16 cells due to excessive pressure change
     1  1.0764e-01  1.0984e-01  2.4536e-06  6.4454e-01  1.0000e+01  8.0314e-03  0:00:00  999
 time step reduced in 16 cells due to excessive pressure change
     2  6.3697e-02  1.9042e-01  6.2448e-03  6.9989e-02  1.3267e-02  6.9936e-03  0:16:38  998
     3  7.3528e-02  2.1302e-01  5.7451e-03  7.7029e-02  4.5026e-03  9.2940e-03  0:13:18  997

 time step reduced in 4 cells due to excessive temperature change
     4  5.9120e-02  1.3123e-01  4.5275e-03  7.0935e-02  4.2191e-03  6.7153e-03  0:10:37  996

 time step reduced in 2 cells due to excessive temperature change
 time step reduced in 196 cells due to excessive pressure change
     5  3.0380e-02  1.2326e-01  3.2878e-03  5.0556e-02  4.6997e-03  6.9309e-03  0:08:29  995

 time step reduced in 4 cells due to excessive temperature change
 time step reduced in 220 cells due to excessive pressure change
     6  2.1577e-02  7.7330e-02  2.2803e-03  4.6031e-02  4.8785e-03  8.6325e-03  0:06:47  994

 time step reduced in 2 cells due to excessive temperature change
 time step reduced in 588 cells due to excessive pressure change
     7  1.7861e-02  3.9080e-02  1.7151e-03  3.8411e-02  4.9334e-03  9.9913e-03  0:08:44  993

 time step reduced in 4 cells due to excessive temperature change
 time step reduced in 636 cells due to excessive pressure change
     8  1.4905e-02  3.8014e-02  1.4762e-03  3.6019e-02  4.8812e-03  1.1396e-02  0:06:59  992

 time step reduced in 14 cells due to excessive temperature change
 time step reduced in 726 cells due to excessive pressure change
     9  1.3446e-02  2.6281e-02  1.3730e-03  2.7638e-02  4.7615e-03  1.3559e-02  0:05:35  991

 time step reduced in 10 cells due to excessive temperature change
 time step reduced in 768 cells due to excessive pressure change
    10  1.2853e-02  3.2262e-02  1.4255e-03  2.4453e-02  4.5164e-03  1.3218e-02  0:04:27  990

 time step reduced in 2 cells due to excessive temperature change
 time step reduced in 768 cells due to excessive pressure change
    11  1.2313e-02  2.2383e-02  1.4375e-03  2.1090e-02  4.0691e-03  1.0773e-02  0:06:52  989
 time step reduced in 886 cells due to excessive pressure change

  iter  continuity  x-velocity  y-velocity      energy           k       omega     time/iter
    12  1.1917e-02  2.3128e-02  1.5419e-03  1.8340e-02  3.3663e-03  9.0869e-03  0:05:29  988
 time step reduced in 954 cells due to excessive pressure change
    13  1.1496e-02  1.6291e-02  1.5900e-03  1.5797e-02  2.7883e-03  8.1091e-03  0:04:23  987

 time step reduced in 1 cells due to excessive temperature change
 time step reduced in 956 cells due to excessive pressure change
    14  1.1138e-02  1.5608e-02  1.5645e-03  1.4188e-02  2.6107e-03  7.4166e-03  0:03:30  986

 time step reduced in 1 cells due to excessive temperature change
 time step reduced in 1121 cells due to excessive pressure change
    15  1.0705e-02  1.5715e-02  1.4845e-03  1.2677e-02  2.5893e-03  6.6465e-03  0:02:48  985
 time step reduced in 1130 cells due to excessive pressure change
    16  1.0300e-02  1.3421e-02  1.4188e-03  1.1498e-02  2.6357e-03  5.9000e-03  0:05:31  984

 time step reduced in 1 cells due to excessive temperature change
 time step reduced in 1286 cells due to excessive pressure change
    17  9.9272e-03  1.2186e-02  1.3736e-03  1.0629e-02  2.6300e-03  5.2330e-03  0:04:25  983
 time step reduced in 1126 cells due to excessive pressure change
    18  9.6473e-03  1.1358e-02  1.3562e-03  1.0103e-02  2.4955e-03  4.5418e-03  0:03:31  982

 time step reduced in 1 cells due to excessive temperature change
 time step reduced in 1222 cells due to excessive pressure change
    19  9.4520e-03  1.1102e-02  1.3445e-03  9.8379e-03  2.4093e-03  3.8290e-03  0:02:49  981

 time step reduced in 1 cells due to excessive temperature change
 time step reduced in 1265 cells due to excessive pressure change
    20  9.2839e-03  1.1188e-02  1.3502e-03  9.6394e-03  2.3722e-03  3.2395e-03  0:02:15  980

 time step reduced in 5 cells due to excessive temperature change
 time step reduced in 1549 cells due to excessive pressure change
    21  9.0597e-03  1.1876e-02  1.3805e-03  9.3538e-03  2.3299e-03  2.8825e-03  0:01:48  979

 time step reduced in 5 cells due to excessive temperature change
 time step reduced in 1374 cells due to excessive pressure change
    22  8.8750e-03  1.2020e-02  1.3988e-03  8.9050e-03  2.2424e-03  2.7274e-03  0:04:42  978

 time step reduced in 10 cells due to excessive temperature change
 time step reduced in 1384 cells due to excessive pressure change

  iter  continuity  x-velocity  y-velocity      energy           k       omega     time/iter
    23  8.7564e-03  1.2321e-02  1.4196e-03  8.3632e-03  2.0959e-03  2.6684e-03  0:03:45  977

 time step reduced in 10 cells due to excessive temperature change
 time step reduced in 1202 cells due to excessive pressure change
    24  8.7040e-03  1.2598e-02  1.4312e-03  7.9462e-03  1.9570e-03  2.6569e-03  0:03:00  976

 time step reduced in 11 cells due to excessive temperature change
 time step reduced in 1128 cells due to excessive pressure change
    25  8.7014e-03  1.3167e-02  1.4666e-03  7.5580e-03  1.8304e-03  2.7111e-03  0:02:24  975

 time step reduced in 18 cells due to excessive temperature change
 time step reduced in 824 cells due to excessive pressure change
    26  8.7136e-03  1.3578e-02  1.4858e-03  7.1440e-03  1.7415e-03  2.7796e-03  0:01:55  974

 time step reduced in 24 cells due to excessive temperature change
 time step reduced in 409 cells due to excessive pressure change
    27  8.8077e-03  1.4020e-02  1.5210e-03  6.8661e-03  1.7066e-03  2.8166e-03  0:01:32  973

 time step reduced in 47 cells due to excessive temperature change
 time step reduced in 198 cells due to excessive pressure change
    28  8.9236e-03  1.4641e-02  1.5809e-03  6.7267e-03  1.7116e-03  2.7673e-03  0:04:28  972

 time step reduced in 43 cells due to excessive temperature change
 time step reduced in 70 cells due to excessive pressure change
    29  9.0482e-03  1.5022e-02  1.6311e-03  6.5921e-03  1.7042e-03  2.7002e-03  0:03:34  971

 time step reduced in 37 cells due to excessive temperature change
 time step reduced in 4 cells due to excessive pressure change
    30  9.2062e-03  1.5740e-02  1.7132e-03  6.6336e-03  1.6806e-03  2.6079e-03  0:02:51  970

 time step reduced in 27 cells due to excessive temperature change
    31  9.3348e-03  1.6236e-02  1.7757e-03  6.6841e-03  1.6418e-03  2.4987e-03  0:02:17  969

 time step reduced in 23 cells due to excessive temperature change
    32  9.4399e-03  1.6505e-02  1.8405e-03  6.6675e-03  1.5962e-03  2.3754e-03  0:01:49  968

 time step reduced in 21 cells due to excessive temperature change
    33  9.3950e-03  1.6990e-02  1.9293e-03  6.6821e-03  1.5473e-03  2.2352e-03  0:04:41  967

 time step reduced in 11 cells due to excessive temperature change

  iter  continuity  x-velocity  y-velocity      energy           k       omega     time/iter
    34  9.1262e-03  1.7282e-02  2.0059e-03  6.7313e-03  1.4925e-03  2.0094e-03  0:03:44  966

 time step reduced in 4 cells due to excessive temperature change
    35  8.8264e-03  1.7743e-02  2.1023e-03  6.7613e-03  1.4345e-03  1.6866e-03  0:02:59  965

 time step reduced in 2 cells due to excessive temperature change
    36  8.5182e-03  1.7866e-02  2.1858e-03  6.7772e-03  1.3663e-03  1.3601e-03  0:02:23  964

 time step reduced in 1 cells due to excessive temperature change
    37  8.2762e-03  1.8041e-02  2.2819e-03  6.7999e-03  1.2960e-03  1.1416e-03  0:01:55  963

 time step reduced in 1 cells due to excessive temperature change
    38  7.9543e-03  1.8343e-02  2.3819e-03  6.8549e-03  1.2380e-03  9.9987e-04  0:01:32  962

 time step reduced in 1 cells due to excessive temperature change
    39  7.1902e-03  1.8468e-02  2.4673e-03  6.9345e-03  1.1841e-03  8.9226e-04  0:04:25  961
    40  5.7167e-03  1.8312e-02  2.5365e-03  6.8765e-03  1.1073e-03  8.0103e-04  0:03:32  960
    41  5.9954e-03  1.8363e-02  2.6150e-03  6.9107e-03  1.0630e-03  7.2011e-04  0:02:49  959
    42  6.1740e-03  1.8671e-02  2.6995e-03  6.9833e-03  1.0347e-03  6.4617e-04  0:02:15  958
    43  6.3641e-03  1.8695e-02  2.7707e-03  7.0182e-03  1.0204e-03  5.7783e-04  0:01:48  957
    44  6.6129e-03  1.8462e-02  2.8271e-03  7.0150e-03  9.9498e-04  5.1308e-04  0:01:26  956

  iter  continuity  x-velocity  y-velocity      energy           k       omega     time/iter
    45  6.5561e-03  1.8364e-02  2.8923e-03  7.0309e-03  9.8979e-04  4.5083e-04  0:04:20  955
    46  6.2998e-03  1.8289e-02  2.9561e-03  7.0253e-03  1.0032e-03  3.9090e-04  0:03:28  954
    47  6.0098e-03  1.8550e-02  3.0254e-03  7.0406e-03  1.0167e-03  3.3882e-04  0:02:46  953
    48  5.7181e-03  1.8339e-02  3.0660e-03  7.0534e-03  1.0076e-03  2.9730e-04  0:02:13  952
    49  5.3731e-03  1.8150e-02  3.1189e-03  7.1211e-03  1.0028e-03  2.6967e-04  0:01:46  951
    50  5.1318e-03  1.8210e-02  3.1664e-03  7.1824e-03  1.0080e-03  2.8345e-04  0:01:25  950
    51  4.9460e-03  1.8327e-02  3.1927e-03  7.1480e-03  9.9179e-04  3.9891e-04  0:04:18  949
    52  4.6137e-03  1.8453e-02  3.1994e-03  7.2035e-03  9.8383e-04  5.8511e-04  0:03:26  948
    53  4.5584e-03  1.8253e-02  3.1817e-03  7.2714e-03  9.7078e-04  7.6347e-04  0:02:44  947
    54  4.6418e-03  1.8245e-02  3.1586e-03  7.3387e-03  9.7451e-04  8.6821e-04  0:02:11  946
    55  4.7018e-03  1.8423e-02  3.1460e-03  7.4339e-03  9.9762e-04  9.2291e-04  0:01:45  945

  iter  continuity  x-velocity  y-velocity      energy           k       omega     time/iter
    56  4.8823e-03  1.8610e-02  3.1280e-03  7.4872e-03  9.9670e-04  9.9133e-04  0:01:24  944
    57  5.1206e-03  1.8399e-02  3.0944e-03  7.4643e-03  1.0034e-03  1.0234e-03  0:04:16  943
    58  5.1211e-03  1.8016e-02  3.0528e-03  7.4532e-03  1.0045e-03  1.0338e-03  0:03:24  942
    59  5.1457e-03  1.7941e-02  3.0040e-03  7.4804e-03  1.0112e-03  1.0403e-03  0:02:43  941
    60  5.1645e-03  1.7668e-02  2.9671e-03  7.5108e-03  9.9377e-04  1.0346e-03  0:02:10  940
    61  5.1408e-03  1.7442e-02  2.9253e-03  7.4945e-03  9.8875e-04  9.8661e-04  0:01:44  939
    62  5.1345e-03  1.7481e-02  2.8955e-03  7.4764e-03  9.7408e-04  9.4104e-04  0:04:31  938
    63  5.1722e-03  1.6841e-02  2.8401e-03  7.4816e-03  9.7523e-04  9.2706e-04  0:03:37  937
    64  5.0851e-03  1.6774e-02  2.7968e-03  7.5434e-03  9.9706e-04  9.4835e-04  0:02:53  936
    65  5.1657e-03  1.6606e-02  2.7429e-03  7.5980e-03  1.0029e-03  1.0412e-03  0:02:18  935
    66  5.2973e-03  1.5916e-02  2.6742e-03  7.6032e-03  1.0117e-03  1.2339e-03  0:01:51  934

  iter  continuity  x-velocity  y-velocity      energy           k       omega     time/iter
    67  5.4020e-03  1.5835e-02  2.6209e-03  7.6356e-03  1.0348e-03  1.2940e-03  0:01:28  933
    68  5.4200e-03  1.5154e-02  2.5538e-03  7.5833e-03  1.0499e-03  1.3903e-03  0:04:17  932
    69  5.5019e-03  1.5120e-02  2.4909e-03  7.5625e-03  1.0870e-03  1.5411e-03  0:03:25  931
    70  5.5923e-03  1.4601e-02  2.4256e-03  7.4993e-03  1.1170e-03  1.6741e-03  0:02:44  930
    71  5.4927e-03  1.4121e-02  2.3749e-03  7.4440e-03  1.1375e-03  1.7986e-03  0:02:11  929
    72  5.2473e-03  1.4292e-02  2.3440e-03  7.4496e-03  1.1911e-03  1.8998e-03  0:01:45  928
    73  4.9859e-03  1.3472e-02  2.2997e-03  7.4130e-03  1.2592e-03  1.7276e-03  0:04:29  927
    74  4.8054e-03  1.3220e-02  2.2654e-03  7.4163e-03  1.3348e-03  1.4924e-03  0:03:35  926
    75  4.7345e-03  1.2933e-02  2.2262e-03  7.4167e-03  1.4235e-03  1.2622e-03  0:02:52  925
    76  4.6822e-03  1.2518e-02  2.1719e-03  7.3926e-03  1.5404e-03  1.0671e-03  0:02:17  924
    77  4.6496e-03  1.2568e-02  2.1257e-03  7.3955e-03  1.6158e-03  9.1370e-04  0:01:50  923

  iter  continuity  x-velocity  y-velocity      energy           k       omega     time/iter
    78  4.6394e-03  1.2042e-02  2.0817e-03  7.3866e-03  1.7275e-03  7.8517e-04  0:04:32  922
    79  4.6706e-03  1.1699e-02  2.0202e-03  7.3358e-03  1.9058e-03  6.6325e-04  0:03:37  921
    80  4.7436e-03  1.1593e-02  1.9694e-03  7.2908e-03  2.0033e-03  5.7229e-04  0:02:54  920
    81  4.5904e-03  1.1294e-02  1.9351e-03  7.2417e-03  2.1512e-03  5.0294e-04  0:02:19  919
    82  4.2803e-03  1.1304e-02  1.9145e-03  7.2363e-03  2.2513e-03  4.4584e-04  0:01:51  918
    83  4.0631e-03  1.0650e-02  1.8808e-03  7.2138e-03  2.3999e-03  4.0138e-04  0:04:32  917
    84  3.9399e-03  1.0261e-02  1.8715e-03  7.1953e-03  2.5808e-03  3.6910e-04  0:03:37  916
    85  3.8867e-03  1.0611e-02  1.8703e-03  7.2401e-03  2.7412e-03  3.4710e-04  0:02:54  915
    86  3.8391e-03  9.9874e-03  1.8323e-03  7.1998e-03  2.9464e-03  3.4037e-04  0:02:19  914
    87  3.8334e-03  1.0167e-02  1.8099e-03  7.2040e-03  2.9223e-03  3.4993e-04  0:01:51  913
    88  3.8229e-03  1.0092e-02  1.7862e-03  7.1913e-03  2.5466e-03  3.6874e-04  0:04:31  912

  iter  continuity  x-velocity  y-velocity      energy           k       omega     time/iter
    89  3.8166e-03  9.5149e-03  1.7335e-03  7.1240e-03  2.2795e-03  3.8817e-04  0:03:37  911
    90  3.8409e-03  9.8851e-03  1.7056e-03  7.1049e-03  2.0763e-03  4.0541e-04  0:02:53  910
    91  3.8121e-03  9.8617e-03  1.6945e-03  7.0925e-03  1.8887e-03  4.1739e-04  0:02:18  909
    92  3.7436e-03  9.3999e-03  1.6729e-03  7.0680e-03  1.7108e-03  4.3224e-04  0:01:51  908
    93  3.6572e-03  9.0699e-03  1.6655e-03  7.0422e-03  1.5523e-03  4.4306e-04  0:04:30  907
    94  3.5997e-03  8.7568e-03  1.6616e-03  7.0576e-03  1.4498e-03  4.4361e-04  0:03:36  906
    95  3.5605e-03  8.8850e-03  1.6772e-03  7.0454e-03  1.3532e-03  4.4517e-04  0:02:52  905
    96  3.5567e-03  8.8233e-03  1.6705e-03  7.0476e-03  1.2862e-03  4.5425e-04  0:02:18  904
    97  3.5295e-03  8.6281e-03  1.6555e-03  7.0701e-03  1.2367e-03  4.5514e-04  0:01:50  903
    98  3.5012e-03  9.0878e-03  1.6502e-03  7.0615e-03  1.1949e-03  4.6025e-04  0:01:28  902
    99  3.4597e-03  8.5095e-03  1.6135e-03  6.9912e-03  1.1648e-03  4.6705e-04  0:04:10  901

  iter  continuity  x-velocity  y-velocity      energy           k       omega     time/iter
   100  3.5239e-03  9.2163e-03  1.6065e-03  7.0149e-03  1.1448e-03  4.6686e-04  0:03:20  900
   101  3.4804e-03  8.8526e-03  1.5942e-03  7.0029e-03  1.1150e-03  4.6287e-04  0:02:40  899
   102  3.2961e-03  8.6621e-03  1.5797e-03  6.9650e-03  1.0577e-03  4.5902e-04  0:02:08  898
   103  3.2637e-03  8.1945e-03  1.5708e-03  6.9438e-03  9.8292e-04  4.5600e-04  0:01:42  897
   104  3.3045e-03  8.2958e-03  1.5766e-03  6.9607e-03  9.4415e-04  4.6062e-04  0:01:22  896
   105  3.3438e-03  7.9598e-03  1.5788e-03  6.9670e-03  9.2611e-04  4.5825e-04  0:04:04  895
   106  3.4079e-03  8.0692e-03  1.5949e-03  6.9664e-03  9.0802e-04  4.6023e-04  0:03:15  894
   107  3.3703e-03  7.8940e-03  1.5935e-03  6.9620e-03  9.0454e-04  4.5714e-04  0:02:36  893
   108  3.4267e-03  8.1899e-03  1.5838e-03  6.9716e-03  8.9567e-04  4.5933e-04  0:02:05  892
   109  3.4995e-03  8.0823e-03  1.5496e-03  6.9578e-03  8.9545e-04  4.5973e-04  0:01:40  891
   110  3.5314e-03  8.4440e-03  1.5391e-03  6.9701e-03  8.9623e-04  4.5714e-04  0:01:20  890

  iter  continuity  x-velocity  y-velocity      energy           k       omega     time/iter
   111  3.5300e-03  8.1657e-03  1.5311e-03  6.9492e-03  9.0348e-04  4.5138e-04  0:04:01  889
   112  3.5152e-03  8.0436e-03  1.5271e-03  6.9122e-03  9.0714e-04  4.4580e-04  0:03:13  888
   113  3.5041e-03  8.0178e-03  1.5292e-03  6.8930e-03  9.0961e-04  4.4412e-04  0:02:34  887
   114  3.5155e-03  7.5562e-03  1.5309e-03  6.8851e-03  9.1555e-04  4.5135e-04  0:05:00  886
   115  3.5576e-03  7.5690e-03  1.5526e-03  6.8912e-03  9.2874e-04  4.5239e-04  0:04:00  885
   116  3.6366e-03  7.8167e-03  1.5808e-03  6.9392e-03  9.4169e-04  4.4871e-04  0:03:12  884
   117  3.7499e-03  7.9286e-03  1.5877e-03  6.9622e-03  9.4438e-04  4.4276e-04  0:02:33  883
   118  3.8640e-03  8.0139e-03  1.5701e-03  6.9611e-03  9.2433e-04  4.3916e-04  0:02:02  882
   119  3.9451e-03  7.9733e-03  1.5568e-03  6.9510e-03  9.3001e-04  4.3475e-04  0:01:38  881
   120  3.9660e-03  8.1765e-03  1.5539e-03  6.9679e-03  9.1537e-04  4.2496e-04  0:04:14  880
   121  4.0192e-03  8.1874e-03  1.5587e-03  6.9740e-03  9.3283e-04  4.1099e-04  0:03:23  879

  iter  continuity  x-velocity  y-velocity      energy           k       omega     time/iter
   122  4.0332e-03  7.8686e-03  1.5645e-03  6.8972e-03  9.4147e-04  4.0470e-04  0:02:42  878
   123  4.1206e-03  7.9439e-03  1.5788e-03  6.8761e-03  9.6336e-04  3.9105e-04  0:02:10  877
   124  4.1682e-03  7.7448e-03  1.5900e-03  6.8883e-03  1.0041e-03  3.9405e-04  0:01:44  876
   125  4.1364e-03  8.1356e-03  1.6215e-03  6.9442e-03  1.0115e-03  3.7717e-04  0:04:18  875
   126  4.0753e-03  8.4558e-03  1.9355e-03  7.0029e-03  1.0506e-03  3.6072e-04  0:03:26  874
   127  4.0318e-03  8.5083e-03  2.8758e-03  7.0145e-03  1.0945e-03  3.6253e-04  0:02:45  873
   128  4.0750e-03  8.7818e-03  2.9785e-03  7.0238e-03  1.1206e-03  3.5807e-04  0:02:12  872
   129  4.1289e-03  8.8064e-03  3.6982e-03  7.0451e-03  1.1668e-03  3.4539e-04  0:01:45  871
   130  4.2742e-03  7.8684e-03  3.6762e-03  6.9830e-03  1.2320e-03  3.3700e-04  0:04:18  870
   131  4.3227e-03  8.3923e-03  3.3672e-03  7.0289e-03  1.3265e-03  3.4323e-04  0:03:26  869
   132  4.2084e-03  8.1981e-03  3.5978e-03  7.0597e-03  1.3781e-03  3.2617e-04  0:02:45  868

  iter  continuity  x-velocity  y-velocity      energy           k       omega     time/iter
   133  4.0743e-03  8.4949e-03  4.0075e-03  7.1378e-03  1.4267e-03  3.3322e-04  0:02:12  867
   134  3.9628e-03  8.2074e-03  4.1182e-03  7.2039e-03  1.5027e-03  3.1633e-04  0:01:45  866
   135  3.8945e-03  8.7736e-03  3.8981e-03  7.2458e-03  1.5416e-03  3.1371e-04  0:01:24  865
   136  3.8674e-03  8.3312e-03  4.1198e-03  7.1915e-03  1.5879e-03  2.9847e-04  0:04:00  864
   137  3.8816e-03  8.3185e-03  4.3822e-03  7.1533e-03  1.6817e-03  2.9661e-04  0:03:12  863
   138  3.9725e-03  8.5897e-03  5.0960e-03  7.1785e-03  1.7924e-03  2.9565e-04  0:02:33  862
   139  3.9875e-03  8.0507e-03  4.5387e-03  7.1999e-03  1.9244e-03  2.8221e-04  0:02:02  861
   140  4.0625e-03  8.3336e-03  4.9293e-03  7.3091e-03  1.9783e-03  2.7768e-04  0:01:38  860
   141  4.0776e-03  7.6512e-03  5.0803e-03  7.3632e-03  2.0284e-03  2.6790e-04  0:01:18  859
   142  3.9910e-03  8.2928e-03  4.6464e-03  7.3846e-03  2.0191e-03  2.6106e-04  0:03:54  858
   143  3.9585e-03  8.5088e-03  4.5550e-03  7.3460e-03  1.9930e-03  2.4245e-04  0:03:07  857

  iter  continuity  x-velocity  y-velocity      energy           k       omega     time/iter
   144  4.1060e-03  8.3832e-03  4.4817e-03  7.3454e-03  1.9615e-03  2.4427e-04  0:02:29  856
   145  4.1564e-03  7.7487e-03  4.5696e-03  7.3810e-03  1.9106e-03  2.3364e-04  0:01:59  855
   146  4.1530e-03  7.8054e-03  5.0749e-03  7.4348e-03  1.8452e-03  2.3131e-04  0:01:35  854
   147  4.1793e-03  9.4446e-03  5.1906e-03  7.5641e-03  1.7535e-03  2.1583e-04  0:04:07  853
   148  4.1177e-03  8.3678e-03  5.2562e-03  7.5531e-03  1.6338e-03  2.0279e-04  0:03:17  852

 time step reduced in 1 cells due to excessive temperature change
   149  3.9943e-03  7.9605e-03  5.2250e-03  7.5379e-03  1.5528e-03  2.0023e-04  0:02:38  851
   150  3.9297e-03  8.5664e-03  5.7012e-03  7.5375e-03  1.4752e-03  1.8749e-04  0:02:06  850
   151  3.8403e-03  8.9065e-03  5.6237e-03  7.5143e-03  1.4062e-03  1.7540e-04  0:01:41  849
   152  3.7876e-03  8.9470e-03  5.3646e-03  7.5219e-03  1.3199e-03  1.7500e-04  0:01:20  848
   153  3.7287e-03  9.3709e-03  5.2296e-03  7.5801e-03  1.2198e-03  1.6735e-04  0:03:54  847
   154  3.7296e-03  8.5751e-03  5.0498e-03  7.5197e-03  1.1505e-03  1.7123e-04  0:03:07  846

  iter  continuity  x-velocity  y-velocity      energy           k       omega     time/iter
   155  3.4858e-03  8.7027e-03  5.5049e-03  7.4183e-03  1.0975e-03  1.5329e-04  0:02:29  845
   156  3.3732e-03  8.3992e-03  5.5677e-03  7.3451e-03  1.0407e-03  1.5237e-04  0:01:59  844
   157  3.3556e-03  8.4923e-03  5.6883e-03  7.3344e-03  9.7996e-04  1.4577e-04  0:01:35  843
   158  3.3360e-03  8.3975e-03  5.6320e-03  7.3713e-03  9.2861e-04  1.2732e-04  0:01:16  842
   159  3.3016e-03  8.4934e-03  5.6902e-03  7.4435e-03  8.7541e-04  1.2225e-04  0:03:49  841
   160  3.2898e-03  8.4725e-03  5.8731e-03  7.5124e-03  8.2933e-04  1.2225e-04  0:03:03  840
   161  3.3204e-03  7.9613e-03  5.8023e-03  7.5991e-03  7.9409e-04  1.2365e-04  0:02:26  839
   162  3.3858e-03  7.9323e-03  5.8094e-03  7.7351e-03  7.6708e-04  1.1805e-04  0:01:57  838
   163  3.4821e-03  8.1328e-03  5.9641e-03  7.8147e-03  7.2747e-04  1.1342e-04  0:01:33  837
   164  3.5960e-03  9.2716e-03  5.9813e-03  7.9755e-03  7.0119e-04  9.9700e-05  0:01:15  836
   165  3.6040e-03  9.3850e-03  5.7139e-03  8.1281e-03  6.9806e-04  1.0043e-04  0:03:47  835

  iter  continuity  x-velocity  y-velocity      energy           k       omega     time/iter
   166  3.5507e-03  8.3793e-03  5.7022e-03  8.1180e-03  6.9218e-04  9.7308e-05  0:03:01  834
   167  3.5269e-03  8.3528e-03  5.8644e-03  8.1227e-03  6.8013e-04  9.4069e-05  0:02:25  833
   168  3.5146e-03  8.3294e-03  6.3385e-03  8.1923e-03  6.8320e-04  8.6769e-05  0:01:56  832
   169  3.5447e-03  8.3093e-03  6.4909e-03  8.2286e-03  6.7311e-04  8.5139e-05  0:01:32  831
   170  3.4481e-03  8.1394e-03  6.7292e-03  8.2294e-03  6.6830e-04  8.7350e-05  0:04:00  830
   171  3.4633e-03  8.2764e-03  6.4025e-03  8.2046e-03  6.7831e-04  8.4251e-05  0:03:12  829
   172  3.5771e-03  8.5588e-03  6.4695e-03  8.2234e-03  6.8279e-04  8.0539e-05  0:02:33  828
   173  3.7338e-03  8.8025e-03  6.4596e-03  8.2689e-03  6.9965e-04  7.3305e-05  0:02:02  827
   174  3.8221e-03  8.5984e-03  6.5237e-03  8.3166e-03  7.1312e-04  7.3557e-05  0:01:38  826
   175  4.0097e-03  8.2602e-03  6.6521e-03  8.3974e-03  7.1921e-04  7.1703e-05  0:01:18  825
   176  4.2216e-03  8.7522e-03  6.7092e-03  8.4653e-03  7.4706e-04  6.9301e-05  0:03:47  824

  iter  continuity  x-velocity  y-velocity      energy           k       omega     time/iter
   177  4.3666e-03  9.2283e-03  7.5019e-03  8.6194e-03  7.6660e-04  6.6508e-05  0:03:02  823
   178  4.5306e-03  9.0578e-03  7.1190e-03  8.5932e-03  8.1097e-04  6.5137e-05  0:02:25  822
   179  4.7820e-03  8.6587e-03  7.3467e-03  8.5995e-03  8.4717e-04  6.5043e-05  0:01:56  821
   180  4.9297e-03  8.2456e-03  7.5948e-03  8.6746e-03  8.5220e-04  6.4110e-05  0:01:33  820
   181  5.0908e-03  9.9040e-03  8.0488e-03  8.7544e-03  9.0221e-04  6.2448e-05  0:03:58  819
   182  5.3491e-03  9.5878e-03  7.6536e-03  8.7792e-03  9.5826e-04  6.1281e-05  0:03:10  818
   183  5.2575e-03  9.6269e-03  7.5182e-03  8.8025e-03  9.5911e-04  6.0167e-05  0:02:32  817
   184  5.1670e-03  8.7350e-03  7.5492e-03  8.7172e-03  9.9896e-04  6.1190e-05  0:02:01  816
   185  5.0841e-03  1.1233e-02  9.0802e-03  8.7596e-03  1.0961e-03  6.1060e-05  0:01:37  815
   186  4.7961e-03  8.8303e-03  7.9602e-03  8.5321e-03  1.0857e-03  6.0954e-05  0:01:17  814
   187  4.7802e-03  8.3929e-03  7.5584e-03  8.5552e-03  1.1383e-03  6.1416e-05  0:03:44  813

  iter  continuity  x-velocity  y-velocity      energy           k       omega     time/iter
   188  4.8309e-03  8.5975e-03  7.3454e-03  8.8050e-03  1.1868e-03  6.0903e-05  0:02:59  812
   189  4.7869e-03  9.2671e-03  7.6630e-03  8.8599e-03  1.2200e-03  6.0690e-05  0:02:23  811
   190  4.8004e-03  7.6429e-03  7.5848e-03  8.6490e-03  1.2344e-03  6.0317e-05  0:01:55  810
   191  4.6721e-03  8.9764e-03  8.1295e-03  8.6120e-03  1.2231e-03  5.9675e-05  0:01:31  809
   192  4.7234e-03  9.2586e-03  8.4413e-03  8.6666e-03  1.2337e-03  5.9717e-05  0:01:13  808
   193  4.8378e-03  8.6713e-03  8.5005e-03  8.6130e-03  1.2566e-03  5.9246e-05  0:03:40  807
   194  4.9535e-03  8.3347e-03  8.2198e-03  8.6830e-03  1.2382e-03  5.8863e-05  0:02:56  806
   195  4.9700e-03  9.5353e-03  8.0432e-03  8.7551e-03  1.2730e-03  5.8261e-05  0:02:20  805
   196  4.9101e-03  9.4018e-03  7.8461e-03  8.7417e-03  1.3231e-03  5.6934e-05  0:01:52  804
   197  4.9248e-03  9.7559e-03  8.2110e-03  8.8192e-03  1.3455e-03  5.6088e-05  0:01:30  803
   198  4.9068e-03  8.7382e-03  8.2050e-03  8.7756e-03  1.3123e-03  5.4537e-05  0:01:12  802

  iter  continuity  x-velocity  y-velocity      energy           k       omega     time/iter
   199  4.8836e-03  9.0523e-03  8.1415e-03  8.7077e-03  1.3002e-03  5.3503e-05  0:03:37  801
   200  4.8855e-03  8.7048e-03  7.9748e-03  8.6682e-03  1.3478e-03  5.2866e-05  0:02:54  800
   201  4.8139e-03  8.4553e-03  8.2711e-03  8.6938e-03  1.3306e-03  5.1562e-05  0:02:19  799
   202  4.7906e-03  8.3912e-03  8.3638e-03  8.6674e-03  1.3289e-03  5.0151e-05  0:01:51  798
   203  4.7022e-03  8.0468e-03  8.0010e-03  8.7309e-03  1.3629e-03  4.9367e-05  0:01:29  797
   204  4.7140e-03  7.7959e-03  8.0026e-03  8.7560e-03  1.3430e-03  4.8326e-05  0:01:11  796
   205  4.7953e-03  8.0683e-03  8.1902e-03  8.8116e-03  1.2864e-03  4.6860e-05  0:03:36  795
   206  4.7159e-03  8.1045e-03  8.3805e-03  8.7290e-03  1.2833e-03  4.6028e-05  0:02:52  794
   207  4.6452e-03  7.9793e-03  8.3962e-03  8.6461e-03  1.2085e-03  4.4512e-05  0:02:18  793
   208  4.6983e-03  8.2383e-03  8.3845e-03  8.6731e-03  1.1999e-03  4.3934e-05  0:01:50  792
   209  4.8203e-03  8.8460e-03  8.3835e-03  8.7261e-03  1.2585e-03  4.3086e-05  0:01:28  791

  iter  continuity  x-velocity  y-velocity      energy           k       omega     time/iter
   210  4.9780e-03  8.6566e-03  8.5590e-03  8.8085e-03  1.1806e-03  4.2100e-05  0:03:48  790
   211  5.1733e-03  8.4136e-03  8.3534e-03  8.9635e-03  1.1259e-03  4.1245e-05  0:03:02  789
   212  5.2592e-03  8.4480e-03  8.0912e-03  9.0584e-03  1.1208e-03  4.0580e-05  0:02:26  788
   213  5.0842e-03  8.5624e-03  8.2568e-03  9.0338e-03  1.0722e-03  3.9826e-05  0:01:56  787
   214  5.1199e-03  8.8445e-03  8.2050e-03  9.0433e-03  1.0492e-03  3.9137e-05  0:04:10  786
   215  5.2221e-03  9.1742e-03  8.5804e-03  9.1246e-03  9.8236e-04  3.8468e-05  0:03:20  785
   216  5.3300e-03  9.1776e-03  8.9378e-03  9.1756e-03  9.1176e-04  3.7833e-05  0:02:40  784
   217  5.4612e-03  8.0907e-03  8.8418e-03  9.2077e-03  8.8541e-04  3.7411e-05  0:02:08  783
   218  5.2468e-03  7.9372e-03  8.9692e-03  9.2301e-03  8.4678e-04  3.6828e-05  0:01:42  782
   219  5.3306e-03  7.9206e-03  9.1545e-03  9.3223e-03  8.0831e-04  3.6300e-05  0:03:58  781
   220  5.4507e-03  8.0387e-03  9.0508e-03  9.4252e-03  7.9610e-04  3.5139e-05  0:03:10  780

  iter  continuity  x-velocity  y-velocity      energy           k       omega     time/iter
   221  5.6508e-03  9.1019e-03  8.8277e-03  9.5499e-03  7.7722e-04  3.5222e-05  0:02:32  779
   222  5.4342e-03  8.6463e-03  8.9685e-03  9.6610e-03  7.5176e-04  3.4596e-05  0:02:01  778
   223  5.4850e-03  9.4652e-03  9.1799e-03  9.8109e-03  7.2799e-04  3.4413e-05  0:01:37  777
   224  5.5828e-03  8.7734e-03  9.2570e-03  9.7652e-03  7.0919e-04  3.4178e-05  0:01:17  776
   225  5.2557e-03  8.7149e-03  9.2684e-03  9.6956e-03  6.9739e-04  3.3898e-05  0:03:37  775
   226  5.3606e-03  9.8212e-03  9.6063e-03  9.8021e-03  6.9085e-04  3.3556e-05  0:02:53  774
   227  5.5553e-03  8.7530e-03  9.4256e-03  9.9088e-03  6.8436e-04  3.3325e-05  0:02:18  773
   228  5.4556e-03  7.4178e-03  9.3197e-03  9.9494e-03  6.6385e-04  3.3244e-05  0:01:51  772
   229  5.4739e-03  7.3733e-03  9.6257e-03  9.9975e-03  6.3557e-04  3.4034e-05  0:01:28  771
   230  5.5453e-03  7.4060e-03  9.3820e-03  1.0014e-02  6.2501e-04  3.3822e-05  0:03:45  770
   231  5.5747e-03  7.9179e-03  8.9473e-03  9.9735e-03  6.2719e-04  3.3929e-05  0:02:59  769

  iter  continuity  x-velocity  y-velocity      energy           k       omega     time/iter
   232  5.5989e-03  8.6586e-03  8.8650e-03  9.9220e-03  6.2142e-04  3.4206e-05  0:02:23  768
   233  5.4838e-03  7.8923e-03  8.7610e-03  9.8300e-03  6.1237e-04  3.3899e-05  0:01:55  767
   234  5.4871e-03  7.7256e-03  8.9011e-03  9.6192e-03  6.2458e-04  3.3701e-05  0:01:32  766
   235  5.2943e-03  7.3386e-03  8.9843e-03  9.4809e-03  6.3717e-04  3.4169e-05  0:01:13  765
   236  5.3049e-03  8.6753e-03  9.4412e-03  9.4481e-03  6.5436e-04  3.3400e-05  0:03:31  764
   237  5.3169e-03  7.9129e-03  8.9784e-03  9.3925e-03  6.7781e-04  3.2933e-05  0:02:49  763
   238  5.2115e-03  7.2392e-03  8.9198e-03  9.3822e-03  7.0605e-04  3.2129e-05  0:02:15  762
   239  5.2392e-03  7.6121e-03  9.1672e-03  9.4634e-03  7.4211e-04  3.1363e-05  0:01:48  761
   240  5.3219e-03  7.8487e-03  9.2689e-03  9.4917e-03  7.9648e-04  3.0668e-05  0:01:26  760
   241  5.5246e-03  8.1687e-03  9.4150e-03  9.6187e-03  7.5177e-04  2.9622e-05  0:01:09  759
   242  5.4760e-03  7.7481e-03  9.1037e-03  9.7347e-03  6.6768e-04  2.8670e-05  0:03:27  758

  iter  continuity  x-velocity  y-velocity      energy           k       omega     time/iter
   243  5.4947e-03  7.7867e-03  9.1838e-03  9.8374e-03  6.4013e-04  2.7846e-05  0:02:45  757
   244  5.5556e-03  7.8794e-03  9.1585e-03  9.9148e-03  6.4780e-04  2.7235e-05  0:02:12  756
   245  5.7023e-03  8.3096e-03  9.2628e-03  9.9230e-03  6.6735e-04  2.6869e-05  0:01:45  755
   246  5.9272e-03  8.1646e-03  9.4843e-03  9.9442e-03  7.1190e-04  2.7031e-05  0:01:24  754
   247  5.8977e-03  8.4873e-03  9.7255e-03  1.0002e-02  7.5079e-04  2.7079e-05  0:01:07  753
   248  5.8974e-03  9.4738e-03  9.8249e-03  1.0024e-02  7.9587e-04  2.7064e-05  0:03:24  752
   249  6.0242e-03  9.3158e-03  9.7916e-03  1.0011e-02  7.6095e-04  2.6919e-05  0:02:43  751
   250  6.0856e-03  9.6131e-03  9.8493e-03  9.9298e-03  6.5839e-04  2.6932e-05  0:02:10  750
   251  6.0412e-03  8.8698e-03  9.9888e-03  9.9142e-03  6.3830e-04  2.5405e-05  0:01:44  749
   252  6.0624e-03  8.0061e-03  9.8300e-03  9.9836e-03  6.1259e-04  2.4924e-05  0:01:23  748
   253  6.2233e-03  8.2508e-03  9.9797e-03  1.0144e-02  5.9944e-04  2.5234e-05  0:01:06  747

  iter  continuity  x-velocity  y-velocity      energy           k       omega     time/iter
   254  6.4427e-03  8.2402e-03  1.0149e-02  1.0293e-02  6.1291e-04  2.5270e-05  0:03:22  746
   255  6.3256e-03  8.5393e-03  1.0150e-02  1.0324e-02  6.3579e-04  2.5231e-05  0:02:42  745
   256  6.2909e-03  8.4057e-03  1.0096e-02  1.0125e-02  6.4951e-04  2.5241e-05  0:02:09  744
   257  6.3420e-03  8.5467e-03  1.0126e-02  9.8586e-03  6.7102e-04  2.5240e-05  0:01:43  743
   258  6.4676e-03  8.8321e-03  1.0503e-02  9.6885e-03  7.0717e-04  2.5341e-05  0:01:22  742
   259  6.4885e-03  8.2716e-03  1.0445e-02  9.6213e-03  6.9972e-04  2.5418e-05  0:01:06  741
   260  6.3727e-03  7.4736e-03  1.0214e-02  9.6116e-03  6.5708e-04  2.5574e-05  0:03:21  740
   261  6.3849e-03  7.4087e-03  1.0225e-02  9.6855e-03  6.0001e-04  2.5715e-05  0:02:40  739
   262  6.5139e-03  7.9484e-03  1.0319e-02  9.8180e-03  5.8063e-04  2.7031e-05  0:02:08  738
   263  6.5445e-03  8.6980e-03  1.0522e-02  9.9933e-03  5.6483e-04  2.7137e-05  0:01:42  737
   264  6.4616e-03  8.2871e-03  1.0457e-02  1.0099e-02  5.5851e-04  2.7158e-05  0:01:22  736

  iter  continuity  x-velocity  y-velocity      energy           k       omega     time/iter
   265  6.4915e-03  8.5538e-03  1.0499e-02  1.0205e-02  5.6670e-04  2.6079e-05  0:03:32  735
   266  6.6141e-03  8.4110e-03  1.0468e-02  1.0296e-02  5.8434e-04  2.5606e-05  0:02:50  734
   267  6.7796e-03  7.9983e-03  1.0463e-02  1.0315e-02  5.8407e-04  2.5576e-05  0:02:15  733
   268  7.0001e-03  8.5321e-03  1.0566e-02  1.0363e-02  5.9740e-04  2.5524e-05  0:01:48  732
   269  6.9312e-03  8.2001e-03  1.0516e-02  1.0468e-02  6.2102e-04  2.5489e-05  0:01:26  731
   270  6.8296e-03  8.1371e-03  1.0470e-02  1.0438e-02  6.2780e-04  2.6774e-05  0:01:09  730
   271  6.8425e-03  8.5418e-03  1.0402e-02  1.0462e-02  6.1179e-04  2.6861e-05  0:03:21  729
   272  6.9051e-03  8.7985e-03  1.0443e-02  1.0431e-02  5.8678e-04  2.6855e-05  0:02:41  728
   273  7.0205e-03  9.5823e-03  1.0273e-02  1.0419e-02  6.0004e-04  2.6843e-05  0:02:08  727
   274  7.1321e-03  1.0695e-02  1.0285e-02  1.0413e-02  6.1471e-04  2.6864e-05  0:01:42  726
   275  6.9198e-03  1.0239e-02  1.0454e-02  1.0242e-02  5.8238e-04  2.6817e-05  0:01:22  725

  iter  continuity  x-velocity  y-velocity      energy           k       omega     time/iter
   276  6.8132e-03  9.0790e-03  1.0163e-02  1.0095e-02  5.5022e-04  2.6745e-05  0:01:05  724
   277  6.8397e-03  9.1141e-03  1.0110e-02  1.0092e-02  5.1932e-04  2.6710e-05  0:03:17  723
   278  6.9540e-03  8.9151e-03  1.0228e-02  1.0165e-02  4.8822e-04  2.6549e-05  0:02:37  722
   279  7.1336e-03  8.9016e-03  1.0396e-02  1.0265e-02  4.6536e-04  2.7332e-05  0:02:06  721
   280  7.1017e-03  9.2981e-03  1.0507e-02  1.0397e-02  4.8445e-04  2.7087e-05  0:01:40  720
   281  6.9812e-03  9.2695e-03  1.0349e-02  1.0397e-02  4.3518e-04  2.6642e-05  0:01:20  719
   282  6.9581e-03  9.2509e-03  1.0129e-02  1.0228e-02  4.1292e-04  2.5159e-05  0:01:04  718
   283  6.9974e-03  9.4343e-03  1.0115e-02  1.0124e-02  4.1420e-04  2.4772e-05  0:03:15  717
   284  7.1104e-03  9.8082e-03  1.0277e-02  1.0076e-02  4.2201e-04  2.4286e-05  0:02:35  716
   285  7.2665e-03  9.7666e-03  1.0330e-02  1.0067e-02  4.1940e-04  2.3450e-05  0:02:04  715
   286  7.1948e-03  9.8967e-03  1.0311e-02  1.0127e-02  4.1080e-04  2.3068e-05  0:01:39  714

  iter  continuity  x-velocity  y-velocity      energy           k       omega     time/iter
   287  7.0251e-03  9.8235e-03  1.0310e-02  1.0155e-02  4.0675e-04  2.3609e-05  0:01:19  713
   288  6.9667e-03  1.0026e-02  1.0389e-02  1.0262e-02  4.0391e-04  2.3037e-05  0:01:03  712
   289  7.0075e-03  1.0027e-02  1.0492e-02  1.0399e-02  4.0090e-04  2.2449e-05  0:03:13  711
   290  7.1085e-03  1.0151e-02  1.0621e-02  1.0449e-02  3.9347e-04  2.1961e-05  0:02:34  710
   291  7.2781e-03  1.0599e-02  1.0617e-02  1.0470e-02  3.8549e-04  2.1488e-05  0:02:03  709
   292  7.2799e-03  1.0164e-02  1.0596e-02  1.0442e-02  3.7361e-04  2.0962e-05  0:01:38  708
   293  7.1666e-03  1.0155e-02  1.0535e-02  1.0465e-02  3.6943e-04  2.0470e-05  0:01:19  707
   294  7.1561e-03  1.0162e-02  1.0438e-02  1.0514e-02  3.6644e-04  2.0018e-05  0:01:03  706
   295  7.2227e-03  1.0289e-02  1.0441e-02  1.0586e-02  3.6503e-04  1.9623e-05  0:03:11  705
   296  7.3443e-03  1.0429e-02  1.0496e-02  1.0654e-02  3.6280e-04  1.9271e-05  0:02:33  704
   297  7.4900e-03  1.0686e-02  1.0605e-02  1.0694e-02  3.6336e-04  1.8982e-05  0:02:02  703

  iter  continuity  x-velocity  y-velocity      energy           k       omega     time/iter
   298  7.6409e-03  1.0793e-02  1.0592e-02  1.0727e-02  3.6618e-04  1.8739e-05  0:01:37  702
   299  7.4906e-03  1.1153e-02  1.0505e-02  1.0676e-02  3.6691e-04  1.8491e-05  0:01:18  701
   300  7.3283e-03  1.1019e-02  1.0516e-02  1.0602e-02  3.6843e-04  1.8250e-05  0:01:02  700
   301  7.2752e-03  1.0696e-02  1.0652e-02  1.0601e-02  3.6545e-04  1.8029e-05  0:03:09  699
   302  7.2973e-03  1.1400e-02  1.0775e-02  1.0642e-02  3.6113e-04  1.7850e-05  0:02:31  698
   303  7.3411e-03  1.1035e-02  1.0736e-02  1.0622e-02  3.5828e-04  1.7681e-05  0:02:01  697
   304  7.4379e-03  1.0553e-02  1.0579e-02  1.0615e-02  3.5721e-04  1.7555e-05  0:01:37  696
   305  7.5948e-03  1.0371e-02  1.0368e-02  1.0596e-02  3.6481e-04  1.7461e-05  0:01:17  695
   306  7.5220e-03  1.0338e-02  1.0156e-02  1.0618e-02  3.7902e-04  1.7335e-05  0:03:20  694
   307  7.4520e-03  1.0455e-02  9.9758e-03  1.0616e-02  3.9461e-04  1.7241e-05  0:02:40  693
   308  7.4179e-03  1.0644e-02  9.9886e-03  1.0622e-02  4.0295e-04  1.6939e-05  0:02:08  692

  iter  continuity  x-velocity  y-velocity      energy           k       omega     time/iter
   309  7.4377e-03  1.0814e-02  1.0160e-02  1.0662e-02  4.0601e-04  1.6932e-05  0:01:42  691
   310  7.5003e-03  1.1026e-02  1.0325e-02  1.0726e-02  3.9905e-04  1.6956e-05  0:01:22  690
   311  7.5911e-03  1.1411e-02  1.0631e-02  1.0804e-02  3.8985e-04  1.7022e-05  0:01:05  689
   312  7.7092e-03  1.1724e-02  1.0819e-02  1.0886e-02  3.9913e-04  1.7148e-05  0:03:10  688
   313  7.8460e-03  1.1799e-02  1.0938e-02  1.0969e-02  4.3826e-04  1.7174e-05  0:02:32  687
   314  7.7904e-03  1.1934e-02  1.0980e-02  1.1016e-02  4.9523e-04  1.7284e-05  0:02:01  686
   315  7.7292e-03  1.2115e-02  1.0859e-02  1.0995e-02  5.3425e-04  1.7340e-05  0:03:54  685
   316  7.6941e-03  1.2326e-02  1.0816e-02  1.0959e-02  5.5935e-04  1.7045e-05  0:03:07  684
   317  7.6814e-03  1.2409e-02  1.0931e-02  1.0952e-02  5.4385e-04  1.7008e-05  0:02:29  683
   318  7.6459e-03  1.2500e-02  1.0797e-02  1.0901e-02  5.0994e-04  1.7011e-05  0:01:59  682
   319  7.6242e-03  1.2719e-02  1.0780e-02  1.0883e-02  4.7207e-04  1.6964e-05  0:01:35  681

  iter  continuity  x-velocity  y-velocity      energy           k       omega     time/iter
   320  7.6208e-03  1.2850e-02  1.0699e-02  1.0876e-02  4.4694e-04  1.6969e-05  0:01:16  680
   321  7.6391e-03  1.3006e-02  1.0639e-02  1.0904e-02  4.4588e-04  1.7009e-05  0:03:17  679
   322  7.7081e-03  1.3155e-02  1.0633e-02  1.1024e-02  4.7527e-04  1.7092e-05  0:02:37  678
   323  7.7881e-03  1.3221e-02  1.0679e-02  1.1105e-02  5.1854e-04  1.7116e-05  0:02:05  677
   324  7.8765e-03  1.3451e-02  1.0624e-02  1.1081e-02  5.7362e-04  1.7137e-05  0:01:40  676
   325  7.9709e-03  1.3711e-02  1.0585e-02  1.1120e-02  5.9883e-04  1.7192e-05  0:01:20  675
   326  8.0553e-03  1.3828e-02  1.0610e-02  1.1174e-02  6.3625e-04  1.7269e-05  0:01:04  674
   327  8.1123e-03  1.3917e-02  1.0700e-02  1.1208e-02  7.1159e-04  1.7397e-05  0:03:06  673
   328  8.1537e-03  1.4160e-02  1.0827e-02  1.1246e-02  7.6566e-04  1.7551e-05  0:02:28  672
   329  8.1766e-03  1.4253e-02  1.0989e-02  1.1231e-02  8.0599e-04  1.7538e-05  0:01:58  671
   330  8.2187e-03  1.4291e-02  1.1229e-02  1.1251e-02  7.1710e-04  1.7603e-05  0:01:35  670

  iter  continuity  x-velocity  y-velocity      energy           k       omega     time/iter
   331  8.2734e-03  1.4238e-02  1.1169e-02  1.1315e-02  6.2756e-04  1.7650e-05  0:01:16  669
   332  8.3196e-03  1.4220e-02  1.1037e-02  1.1385e-02  5.6797e-04  1.7787e-05  0:01:00  668
   333  8.3439e-03  1.4342e-02  1.0922e-02  1.1436e-02  5.3085e-04  1.7848e-05  0:03:02  667
   334  8.3575e-03  1.4556e-02  1.0833e-02  1.1472e-02  5.0760e-04  1.7923e-05  0:02:25  666
   335  8.3603e-03  1.4612e-02  1.0706e-02  1.1418e-02  5.0143e-04  1.8002e-05  0:01:56  665
   336  8.4025e-03  1.4775e-02  1.0667e-02  1.1464e-02  4.7230e-04  1.8075e-05  0:01:33  664
   337  8.4111e-03  1.4788e-02  1.0562e-02  1.1222e-02  4.3806e-04  1.8257e-05  0:01:14  663
   338  8.4365e-03  1.5194e-02  1.0732e-02  1.1065e-02  4.1955e-04  1.8285e-05  0:00:59  662
   339  8.3907e-03  1.5161e-02  1.0501e-02  1.0901e-02  4.0943e-04  1.8311e-05  0:02:59  661
   340  8.3736e-03  1.4946e-02  1.0461e-02  1.0785e-02  3.9467e-04  1.8402e-05  0:02:23  660
   341  8.3724e-03  1.4921e-02  1.0523e-02  1.0705e-02  3.8185e-04  1.8556e-05  0:01:54  659

  iter  continuity  x-velocity  y-velocity      energy           k       omega     time/iter
   342  8.4022e-03  1.5010e-02  1.0572e-02  1.0683e-02  3.7617e-04  1.8718e-05  0:01:31  658
   343  8.4393e-03  1.5006e-02  1.0620e-02  1.0697e-02  3.6804e-04  1.8859e-05  0:01:13  657
   344  8.4008e-03  1.5048e-02  1.0613e-02  1.0723e-02  3.5235e-04  1.9046e-05  0:00:58  656
   345  8.3817e-03  1.5246e-02  1.0664e-02  1.0794e-02  3.3612e-04  1.9256e-05  0:02:58  655
   346  8.3274e-03  1.5369e-02  1.0738e-02  1.0859e-02  3.2055e-04  1.9460e-05  0:02:22  654
   347  8.2268e-03  1.5469e-02  1.0757e-02  1.0899e-02  3.0936e-04  1.9707e-05  0:01:53  653
   348  8.1181e-03  1.5455e-02  1.0740e-02  1.0941e-02  3.0167e-04  1.9958e-05  0:01:31  652
   349  8.0366e-03  1.5423e-02  1.0727e-02  1.1005e-02  2.9774e-04  2.0175e-05  0:01:12  651
   350  7.9854e-03  1.5369e-02  1.0642e-02  1.1097e-02  2.9670e-04  2.0407e-05  0:03:08  650
   351  7.8985e-03  1.5346e-02  1.0595e-02  1.1192e-02  2.9809e-04  2.0630e-05  0:02:30  649
   352  7.8284e-03  1.5255e-02  1.0625e-02  1.1273e-02  3.0086e-04  2.0847e-05  0:02:00  648

  iter  continuity  x-velocity  y-velocity      energy           k       omega     time/iter
   353  7.8026e-03  1.5217e-02  1.0757e-02  1.1283e-02  3.0464e-04  2.1038e-05  0:01:36  647
   354  7.7873e-03  1.5252e-02  1.0870e-02  1.1322e-02  3.0981e-04  2.1240e-05  0:01:16  646
   355  7.7918e-03  1.5305e-02  1.0915e-02  1.1376e-02  3.1610e-04  2.1417e-05  0:01:01  645
   356  7.7879e-03  1.5383e-02  1.0903e-02  1.1465e-02  3.2082e-04  2.1585e-05  0:02:58  644
   357  7.7673e-03  1.5419e-02  1.0874e-02  1.1569e-02  3.2579e-04  2.1749e-05  0:02:22  643
   358  7.7341e-03  1.5385e-02  1.0916e-02  1.1631e-02  3.2799e-04  2.1883e-05  0:01:53  642
   359  7.7036e-03  1.5341e-02  1.0928e-02  1.1680e-02  3.3222e-04  2.2007e-05  0:01:30  641
   360  7.6389e-03  1.5300e-02  1.0865e-02  1.1612e-02  3.3673e-04  2.2137e-05  0:01:12  640
   361  7.5682e-03  1.5293e-02  1.0921e-02  1.1569e-02  3.4220e-04  2.2251e-05  0:03:06  639
   362  7.5025e-03  1.5422e-02  1.1114e-02  1.1573e-02  3.4872e-04  2.2297e-05  0:02:28  638
   363  7.4210e-03  1.5532e-02  1.1294e-02  1.1517e-02  3.5939e-04  2.2339e-05  0:01:58  637

  iter  continuity  x-velocity  y-velocity      energy           k       omega     time/iter
   364  7.3428e-03  1.5531e-02  1.1264e-02  1.1431e-02  3.6664e-04  2.2354e-05  0:01:35  636
   365  7.2994e-03  1.5538e-02  1.1214e-02  1.1413e-02  3.7147e-04  2.2372e-05  0:01:16  635
   366  7.2604e-03  1.5419e-02  1.1190e-02  1.1389e-02  3.8068e-04  2.2367e-05  0:01:00  634
   367  7.1996e-03  1.5377e-02  1.1156e-02  1.1329e-02  3.8174e-04  2.2442e-05  0:02:55  633
   368  7.1397e-03  1.5392e-02  1.1052e-02  1.1301e-02  3.7215e-04  2.2518e-05  0:02:20  632
   369  7.0769e-03  1.5623e-02  1.1157e-02  1.1295e-02  3.6473e-04  2.2625e-05  0:01:52  631
   370  7.0240e-03  1.5386e-02  1.1098e-02  1.1332e-02  3.5601e-04  2.2764e-05  0:01:29  630
   371  6.9808e-03  1.5302e-02  1.1080e-02  1.1284e-02  3.4771e-04  2.2903e-05  0:01:11  629
   372  6.9749e-03  1.5336e-02  1.1127e-02  1.1309e-02  3.4124e-04  2.3019e-05  0:00:57  628
   373  6.9578e-03  1.5357e-02  1.1214e-02  1.1412e-02  3.2771e-04  2.3223e-05  0:02:51  627
   374  6.9447e-03  1.5450e-02  1.1329e-02  1.1571e-02  3.2274e-04  2.3374e-05  0:02:16  626

  iter  continuity  x-velocity  y-velocity      energy           k       omega     time/iter
   375  6.9233e-03  1.5454e-02  1.1379e-02  1.1693e-02  3.1980e-04  2.3558e-05  0:01:49  625
   376  6.8890e-03  1.5350e-02  1.1407e-02  1.1774e-02  3.1657e-04  2.3540e-05  0:01:27  624
   377  6.8598e-03  1.5278e-02  1.1539e-02  1.1885e-02  3.1455e-04  2.3748e-05  0:01:10  623
   378  6.8597e-03  1.5169e-02  1.1726e-02  1.1966e-02  3.0779e-04  2.3985e-05  0:00:56  622
   379  6.8437e-03  1.5066e-02  1.1829e-02  1.1943e-02  2.9954e-04  2.4143e-05  0:02:49  621
   380  6.8301e-03  1.5052e-02  1.1885e-02  1.1895e-02  2.9347e-04  2.4361e-05  0:02:15  620
   381  6.8093e-03  1.5017e-02  1.1856e-02  1.1845e-02  2.8882e-04  2.4637e-05  0:01:48  619
   382  6.8055e-03  1.5032e-02  1.1786e-02  1.1836e-02  2.8364e-04  2.4833e-05  0:01:26  618
   383  6.8094e-03  1.5140e-02  1.1710e-02  1.1831e-02  2.7889e-04  2.4972e-05  0:01:09  617
   384  6.8069e-03  1.5173e-02  1.1658e-02  1.1823e-02  2.7902e-04  2.5110e-05  0:00:55  616
   385  6.7337e-03  1.5263e-02  1.1629e-02  1.1829e-02  2.7698e-04  2.5340e-05  0:02:47  615

  iter  continuity  x-velocity  y-velocity      energy           k       omega     time/iter
   386  6.6568e-03  1.5309e-02  1.1604e-02  1.1887e-02  2.7431e-04  2.5593e-05  0:02:13  614
   387  6.5906e-03  1.5302e-02  1.1548e-02  1.1893e-02  2.7437e-04  2.5852e-05  0:01:46  613
   388  6.5566e-03  1.5367e-02  1.1552e-02  1.1853e-02  2.7340e-04  2.5976e-05  0:01:25  612
   389  6.5819e-03  1.5462e-02  1.1587e-02  1.1832e-02  2.7163e-04  2.6112e-05  0:01:08  611
   390  6.6620e-03  1.5591e-02  1.1615e-02  1.1802e-02  2.7137e-04  2.6315e-05  0:00:54  610
   391  6.5419e-03  1.5750e-02  1.1599e-02  1.1783e-02  2.6888e-04  2.6527e-05  0:02:45  609
   392  6.5073e-03  1.5868e-02  1.1656e-02  1.1823e-02  2.6561e-04  2.6635e-05  0:02:12  608
   393  6.6081e-03  1.5987e-02  1.1728e-02  1.1799e-02  2.6379e-04  2.6704e-05  0:01:45  607
   394  6.7990e-03  1.6051e-02  1.1758e-02  1.1754e-02  2.6324e-04  2.6691e-05  0:01:24  606
   395  7.0464e-03  1.6133e-02  1.1667e-02  1.1729e-02  2.6405e-04  2.6673e-05  0:01:07  605
   396  7.1239e-03  1.6297e-02  1.1610e-02  1.1760e-02  2.6526e-04  2.6677e-05  0:00:54  604

  iter  continuity  x-velocity  y-velocity      energy           k       omega     time/iter
   397  7.1192e-03  1.6401e-02  1.1563e-02  1.1833e-02  2.6574e-04  2.6640e-05  0:02:43  603
   398  7.1241e-03  1.6416e-02  1.1506e-02  1.1931e-02  2.6569e-04  2.6614e-05  0:02:11  602
   399  7.1568e-03  1.6484e-02  1.1493e-02  1.2070e-02  2.6377e-04  2.6487e-05  0:01:44  601
   400  7.1833e-03  1.6530e-02  1.1544e-02  1.2069e-02  2.6324e-04  2.6412e-05  0:01:23  600
   401  7.2145e-03  1.6503e-02  1.1641e-02  1.2075e-02  2.6373e-04  2.6337e-05  0:01:07  599
   402  7.2334e-03  1.6497e-02  1.1606e-02  1.2044e-02  2.6252e-04  2.6230e-05  0:00:53  598
   403  7.2543e-03  1.6643e-02  1.1756e-02  1.2010e-02  2.6174e-04  2.6168e-05  0:02:42  597
   404  7.2693e-03  1.6621e-02  1.1668e-02  1.1943e-02  2.6135e-04  2.6149e-05  0:02:09  596
   405  7.3157e-03  1.6658e-02  1.1614e-02  1.1960e-02  2.6092e-04  2.6099e-05  0:01:43  595
   406  7.3819e-03  1.6684e-02  1.1544e-02  1.2017e-02  2.6058e-04  2.6086e-05  0:01:22  594
   407  7.4522e-03  1.6664e-02  1.1437e-02  1.2069e-02  2.6070e-04  2.6126e-05  0:01:06  593

  iter  continuity  x-velocity  y-velocity      energy           k       omega     time/iter
   408  7.5379e-03  1.6688e-02  1.1311e-02  1.2134e-02  2.6163e-04  2.6128e-05  0:00:53  592
   409  7.6371e-03  1.6739e-02  1.1232e-02  1.2188e-02  2.6349e-04  2.6109e-05  0:02:40  591
   410  7.7263e-03  1.6792e-02  1.1284e-02  1.2267e-02  2.6650e-04  2.6232e-05  0:02:08  590
   411  7.7035e-03  1.6777e-02  1.1271e-02  1.2361e-02  2.7034e-04  2.6321e-05  0:01:42  589
   412  7.6887e-03  1.6807e-02  1.1461e-02  1.2252e-02  2.7265e-04  2.6439e-05  0:03:19  588
   413  7.6943e-03  1.6915e-02  1.1529e-02  1.2069e-02  2.7388e-04  2.6513e-05  0:02:39  587
   414  7.7221e-03  1.7022e-02  1.1578e-02  1.2021e-02  2.7882e-04  2.6616e-05  0:02:07  586
   415  7.7692e-03  1.7135e-02  1.1637e-02  1.2026e-02  2.8609e-04  2.6760e-05  0:01:41  585
   416  7.8456e-03  1.7214e-02  1.1658e-02  1.2102e-02  2.9498e-04  2.6916e-05  0:01:21  584
   417  7.9228e-03  1.7256e-02  1.1627e-02  1.2166e-02  2.9829e-04  2.7086e-05  0:01:05  583
   418  7.9677e-03  1.7172e-02  1.1506e-02  1.2180e-02  3.0094e-04  2.7251e-05  0:02:48  582

  iter  continuity  x-velocity  y-velocity      energy           k       omega     time/iter
   419  8.0461e-03  1.7132e-02  1.1381e-02  1.2279e-02  3.0221e-04  2.7435e-05  0:02:14  581
   420  8.1362e-03  1.7180e-02  1.1270e-02  1.2323e-02  2.9563e-04  2.7573e-05  0:01:47  580
   421  8.2236e-03  1.7189e-02  1.1271e-02  1.2321e-02  2.8748e-04  2.7687e-05  0:01:26  579
   422  8.3338e-03  1.7344e-02  1.1312e-02  1.2361e-02  2.7534e-04  2.7841e-05  0:01:08  578
   423  8.3431e-03  1.7455e-02  1.1261e-02  1.2346e-02  2.5958e-04  2.7961e-05  0:00:55  577
   424  8.2985e-03  1.7685e-02  1.1497e-02  1.2189e-02  2.4804e-04  2.8064e-05  0:02:39  576
   425  8.2648e-03  1.7634e-02  1.1331e-02  1.2045e-02  2.4057e-04  2.8275e-05  0:02:07  575
   426  8.2800e-03  1.7686e-02  1.1282e-02  1.1974e-02  2.3652e-04  2.8152e-05  0:01:41  574
   427  8.3340e-03  1.7817e-02  1.1260e-02  1.1952e-02  2.3463e-04  2.8785e-05  0:01:21  573
   428  8.4252e-03  1.8095e-02  1.1313e-02  1.1976e-02  2.3441e-04  2.8639e-05  0:01:05  572
   429  8.5175e-03  1.8212e-02  1.1534e-02  1.1994e-02  2.3466e-04  2.8934e-05  0:00:52  571

  iter  continuity  x-velocity  y-velocity      energy           k       omega     time/iter
   430  8.6169e-03  1.8302e-02  1.1709e-02  1.2015e-02  2.3519e-04  2.9167e-05  0:02:35  570
   431  8.7124e-03  1.8327e-02  1.1724e-02  1.2027e-02  2.3263e-04  2.9435e-05  0:02:04  569
   432  8.8000e-03  1.8391e-02  1.1635e-02  1.2030e-02  2.2814e-04  3.0107e-05  0:01:39  568
   433  8.8472e-03  1.8392e-02  1.1515e-02  1.2011e-02  2.2317e-04  3.0309e-05  0:01:19  567
   434  8.8571e-03  1.8471e-02  1.1454e-02  1.2011e-02  2.1872e-04  3.0512e-05  0:01:03  566
   435  8.8614e-03  1.8520e-02  1.1441e-02  1.2010e-02  2.1481e-04  3.0747e-05  0:02:43  565
   436  8.8472e-03  1.8518e-02  1.1355e-02  1.1981e-02  2.1166e-04  3.1011e-05  0:02:10  564
   437  8.8100e-03  1.8385e-02  1.1273e-02  1.1906e-02  2.0885e-04  3.1267e-05  0:01:44  563
   438  8.7893e-03  1.8279e-02  1.1234e-02  1.1826e-02  2.0585e-04  3.2492e-05  0:01:23  562
   439  8.7933e-03  1.8228e-02  1.1262e-02  1.1763e-02  2.0282e-04  3.2457e-05  0:01:06  561
   440  8.8088e-03  1.8192e-02  1.1274e-02  1.1712e-02  1.9982e-04  3.2467e-05  0:00:53  560

  iter  continuity  x-velocity  y-velocity      energy           k       omega     time/iter
   441  8.8317e-03  1.8154e-02  1.1288e-02  1.1578e-02  1.9684e-04  3.2587e-05  0:02:34  559
   442  8.8526e-03  1.8097e-02  1.1262e-02  1.1427e-02  1.9384e-04  3.2627e-05  0:02:03  558
   443  8.8708e-03  1.8007e-02  1.1226e-02  1.1285e-02  1.9099e-04  3.2717e-05  0:01:38  557
   444  8.8955e-03  1.7878e-02  1.1212e-02  1.1163e-02  1.8827e-04  3.2815e-05  0:01:19  556
   445  8.9597e-03  1.7833e-02  1.1246e-02  1.1113e-02  1.8571e-04  3.2891e-05  0:01:03  555
   446  9.0138e-03  1.7747e-02  1.1275e-02  1.1061e-02  1.8333e-04  3.2961e-05  0:00:50  554
   447  9.0615e-03  1.7759e-02  1.1304e-02  1.1023e-02  1.8126e-04  3.2903e-05  0:02:31  553
   448  9.1038e-03  1.7824e-02  1.1320e-02  1.0984e-02  1.7935e-04  3.2897e-05  0:02:00  552
   449  9.1370e-03  1.7884e-02  1.1320e-02  1.0945e-02  1.7761e-04  3.2919e-05  0:01:36  551
   450  9.1657e-03  1.7832e-02  1.1280e-02  1.0910e-02  1.7610e-04  3.2678e-05  0:01:17  550
   451  9.2043e-03  1.7798e-02  1.1323e-02  1.0894e-02  1.7455e-04  3.2759e-05  0:01:01  549

  iter  continuity  x-velocity  y-velocity      energy           k       omega     time/iter
   452  9.2477e-03  1.7721e-02  1.1375e-02  1.0896e-02  1.7351e-04  3.2845e-05  0:02:38  548
   453  9.2640e-03  1.7633e-02  1.1292e-02  1.0868e-02  1.7271e-04  3.2917e-05  0:02:07  547
   454  9.2775e-03  1.7532e-02  1.1207e-02  1.0850e-02  1.7214e-04  3.2991e-05  0:01:41  546
   455  9.3009e-03  1.7522e-02  1.1147e-02  1.0856e-02  1.7161e-04  3.2723e-05  0:01:21  545
   456  9.3081e-03  1.7526e-02  1.1076e-02  1.0842e-02  1.7096e-04  3.2648e-05  0:01:04  544
   457  9.3089e-03  1.7476e-02  1.1003e-02  1.0819e-02  1.7023e-04  3.2715e-05  0:00:51  543
   458  9.3101e-03  1.7444e-02  1.0902e-02  1.0791e-02  1.6959e-04  3.2824e-05  0:02:29  542
   459  9.3448e-03  1.7488e-02  1.0835e-02  1.0816e-02  1.6904e-04  3.2713e-05  0:01:59  541
   460  9.3992e-03  1.7510e-02  1.0806e-02  1.0869e-02  1.6858e-04  3.2607e-05  0:01:35  540
   461  9.4508e-03  1.7526e-02  1.0735e-02  1.0918e-02  1.6823e-04  3.2496e-05  0:01:16  539
   462  9.4758e-03  1.7359e-02  1.0721e-02  1.0877e-02  1.6790e-04  3.2418e-05  0:01:01  538

  iter  continuity  x-velocity  y-velocity      energy           k       omega     time/iter
   463  9.4733e-03  1.7128e-02  1.0696e-02  1.0731e-02  1.6765e-04  3.2264e-05  0:00:49  537
   464  9.4897e-03  1.6968e-02  1.0720e-02  1.0621e-02  1.6739e-04  3.2332e-05  0:02:26  536
   465  9.5146e-03  1.6806e-02  1.0752e-02  1.0527e-02  1.6710e-04  3.2297e-05  0:01:57  535
   466  9.5547e-03  1.6745e-02  1.0796e-02  1.0472e-02  1.6698e-04  3.2224e-05  0:01:33  534
   467  9.6012e-03  1.6744e-02  1.0826e-02  1.0449e-02  1.6681e-04  3.2197e-05  0:01:14  533
   468  9.6094e-03  1.6709e-02  1.0828e-02  1.0452e-02  1.6678e-04  3.2146e-05  0:00:59  532
   469  9.5918e-03  1.6651e-02  1.0767e-02  1.0461e-02  1.6658e-04  3.2002e-05  0:00:47  531
   470  9.5547e-03  1.6655e-02  1.0645e-02  1.0464e-02  1.6671e-04  3.1843e-05  0:02:24  530
   471  9.5090e-03  1.6622e-02  1.0523e-02  1.0455e-02  1.6679e-04  3.1714e-05  0:01:55  529
   472  9.4816e-03  1.6586e-02  1.0466e-02  1.0469e-02  1.6727e-04  3.1576e-05  0:01:32  528
   473  9.4606e-03  1.6518e-02  1.0455e-02  1.0495e-02  1.6785e-04  3.1452e-05  0:01:13  527

  iter  continuity  x-velocity  y-velocity      energy           k       omega     time/iter
   474  9.4067e-03  1.6500e-02  1.0375e-02  1.0485e-02  1.6845e-04  3.1329e-05  0:00:58  526
   475  9.3688e-03  1.6499e-02  1.0431e-02  1.0397e-02  1.7012e-04  3.0520e-05  0:02:32  525
   476  9.3432e-03  1.6513e-02  1.0505e-02  1.0341e-02  1.7549e-04  3.0440e-05  0:02:01  524
   477  9.3370e-03  1.6479e-02  1.0541e-02  1.0324e-02  1.7174e-04  3.0311e-05  0:01:37  523
   478  9.3456e-03  1.6434e-02  1.0507e-02  1.0347e-02  1.7223e-04  3.0187e-05  0:01:17  522
   479  9.3603e-03  1.6353e-02  1.0434e-02  1.0398e-02  1.7390e-04  3.0066e-05  0:01:02  521
   480  9.3851e-03  1.6263e-02  1.0383e-02  1.0469e-02  1.7552e-04  2.9910e-05  0:02:33  520
   481  9.4065e-03  1.6154e-02  1.0319e-02  1.0491e-02  1.7752e-04  2.9668e-05  0:02:02  519
   482  9.4177e-03  1.6076e-02  1.0241e-02  1.0346e-02  1.8190e-04  3.0069e-05  0:01:38  518
   483  9.3847e-03  1.5863e-02  1.0188e-02  1.0092e-02  1.8528e-04  3.0839e-05  0:01:18  517
   484  9.3647e-03  1.5739e-02  1.0144e-02  9.9228e-03  1.8878e-04  3.0223e-05  0:01:02  516

  iter  continuity  x-velocity  y-velocity      energy           k       omega     time/iter
   485  9.3616e-03  1.5634e-02  1.0099e-02  9.8680e-03  1.9250e-04  2.9735e-05  0:00:50  515
   486  9.3646e-03  1.5550e-02  1.0053e-02  9.8615e-03  1.9857e-04  2.9385e-05  0:02:23  514
   487  9.3489e-03  1.5442e-02  1.0005e-02  9.8476e-03  2.0436e-04  2.9112e-05  0:01:54  513
   488  9.3428e-03  1.5329e-02  9.9906e-03  9.8650e-03  2.1110e-04  2.8874e-05  0:01:31  512
   489  9.3629e-03  1.5315e-02  9.9953e-03  9.9264e-03  2.1955e-04  2.8621e-05  0:01:13  511
   490  9.3768e-03  1.5298e-02  9.9771e-03  9.9852e-03  2.2545e-04  2.8423e-05  0:00:58  510
   491  9.4003e-03  1.5286e-02  9.9583e-03  1.0053e-02  2.2823e-04  2.8275e-05  0:02:28  509
   492  9.4450e-03  1.5346e-02  9.9454e-03  1.0133e-02  2.3188e-04  2.8174e-05  0:01:58  508
   493  9.4938e-03  1.5327e-02  9.9329e-03  1.0133e-02  2.3557e-04  2.8054e-05  0:01:34  507
   494  9.5441e-03  1.5247e-02  9.9061e-03  1.0140e-02  2.3870e-04  2.7939e-05  0:01:15  506
   495  9.5947e-03  1.5188e-02  9.8787e-03  1.0147e-02  2.3893e-04  2.7736e-05  0:01:00  505

  iter  continuity  x-velocity  y-velocity      energy           k       omega     time/iter
   496  9.6496e-03  1.5170e-02  9.8622e-03  1.0163e-02  2.3882e-04  2.7549e-05  0:00:48  504
   497  9.6512e-03  1.5125e-02  9.8482e-03  1.0151e-02  2.4080e-04  2.7376e-05  0:02:19  503
   498  9.6493e-03  1.5092e-02  9.8343e-03  1.0097e-02  2.4232e-04  2.7016e-05  0:01:51  502
   499  9.6734e-03  1.5062e-02  9.8041e-03  1.0067e-02  2.4334e-04  2.6839e-05  0:01:29  501
   500  9.6939e-03  1.5049e-02  9.7748e-03  1.0056e-02  2.4331e-04  2.6794e-05  0:01:11  500
   501  9.7071e-03  1.5021e-02  9.7385e-03  1.0053e-02  2.4413e-04  2.6820e-05  0:00:56  499
   502  9.7028e-03  1.5002e-02  9.6888e-03  1.0038e-02  2.4442e-04  2.6781e-05  0:02:25  498
   503  9.7079e-03  1.4996e-02  9.6696e-03  1.0017e-02  2.4446e-04  2.6808e-05  0:01:56  497
   504  9.7184e-03  1.4998e-02  9.6593e-03  1.0001e-02  2.4589e-04  2.6764e-05  0:01:32  496
   505  9.7282e-03  1.5018e-02  9.6324e-03  9.9843e-03  2.4830e-04  2.6756e-05  0:01:14  495
   506  9.7549e-03  1.5050e-02  9.6385e-03  9.9869e-03  2.5057e-04  2.6739e-05  0:00:59  494

  iter  continuity  x-velocity  y-velocity      energy           k       omega     time/iter
   507  9.7879e-03  1.5078e-02  9.6413e-03  9.9928e-03  2.5293e-04  2.6722e-05  0:00:47  493
   508  9.8084e-03  1.5044e-02  9.6313e-03  9.9795e-03  2.5301e-04  2.6684e-05  0:02:16  492
   509  9.8341e-03  1.5034e-02  9.6059e-03  9.9744e-03  2.5796e-04  2.6669e-05  0:01:48  491
   510  9.8367e-03  1.4959e-02  9.5726e-03  9.9374e-03  2.6434e-04  2.6582e-05  0:01:27  490
   511  9.8431e-03  1.4927e-02  9.5602e-03  9.9078e-03  2.7272e-04  2.6451e-05  0:02:47  489
   512  9.8553e-03  1.4920e-02  9.5864e-03  9.8840e-03  2.8656e-04  2.6383e-05  0:02:13  488
   513  9.8764e-03  1.4890e-02  9.5717e-03  9.8703e-03  2.7929e-04  2.6268e-05  0:01:46  487
   514  9.8978e-03  1.4823e-02  9.5042e-03  9.8613e-03  2.6700e-04  2.6212e-05  0:01:25  486
   515  9.9355e-03  1.4785e-02  9.4491e-03  9.8633e-03  2.6774e-04  2.6150e-05  0:01:08  485
   516  9.9770e-03  1.4770e-02  9.4135e-03  9.8704e-03  2.7147e-04  2.6008e-05  0:00:54  484
   517  1.0021e-02  1.4767e-02  9.3846e-03  9.8786e-03  2.6446e-04  2.5872e-05  0:02:20  483

  iter  continuity  x-velocity  y-velocity      energy           k       omega     time/iter
   518  1.0044e-02  1.4731e-02  9.3374e-03  9.8682e-03  2.5640e-04  2.5799e-05  0:01:52  482
   519  1.0085e-02  1.4721e-02  9.3286e-03  9.8748e-03  2.4797e-04  2.5811e-05  0:01:29  481
   520  1.0107e-02  1.4737e-02  9.3441e-03  9.8917e-03  2.3967e-04  2.5751e-05  0:01:11  480
   521  1.0165e-02  1.4728e-02  9.3299e-03  9.9158e-03  2.3143e-04  2.5641e-05  0:00:57  479
   522  1.0227e-02  1.4717e-02  9.3186e-03  9.9447e-03  2.2290e-04  2.5479e-05  0:00:45  478
   523  1.0266e-02  1.4717e-02  9.2990e-03  9.9489e-03  2.1439e-04  2.5335e-05  0:02:12  477
   524  1.0305e-02  1.4733e-02  9.2994e-03  9.9544e-03  2.0515e-04  2.5177e-05  0:01:45  476
   525  1.0311e-02  1.4685e-02  9.2785e-03  9.9245e-03  1.9692e-04  2.4892e-05  0:01:24  475
   526  1.0254e-02  1.4625e-02  9.2706e-03  9.8917e-03  1.8978e-04  2.4859e-05  0:01:07  474
   527  1.0211e-02  1.4620e-02  9.2406e-03  9.8801e-03  1.8449e-04  2.4794e-05  0:00:53  473
   528  1.0173e-02  1.4655e-02  9.2184e-03  9.8741e-03  1.8388e-04  2.4749e-05  0:00:43  472

  iter  continuity  x-velocity  y-velocity      energy           k       omega     time/iter
   529  1.0155e-02  1.4741e-02  9.2070e-03  9.8918e-03  1.9157e-04  2.4716e-05  0:02:08  471
   530  1.0137e-02  1.4804e-02  9.2074e-03  9.9083e-03  1.9846e-04  2.4687e-05  0:01:42  470
   531  1.0115e-02  1.4845e-02  9.2043e-03  9.9167e-03  2.0190e-04  2.4275e-05  0:01:22  469
   532  1.0088e-02  1.4899e-02  9.2042e-03  9.9252e-03  2.0928e-04  2.4441e-05  0:01:05  468
   533  1.0060e-02  1.4934e-02  9.2074e-03  9.9275e-03  2.1661e-04  2.4390e-05  0:00:52  467
   534  1.0032e-02  1.4950e-02  9.2198e-03  9.9271e-03  2.1796e-04  2.4427e-05  0:00:42  466
   535  9.9920e-03  1.4917e-02  9.2306e-03  9.9104e-03  2.0626e-04  2.4478e-05  0:02:06  465
   536  9.9863e-03  1.5012e-02  9.2669e-03  9.9394e-03  1.9883e-04  2.4519e-05  0:01:41  464
   537  9.9854e-03  1.5097e-02  9.3273e-03  9.9745e-03  1.9488e-04  2.4593e-05  0:01:20  463
   538  9.9791e-03  1.5186e-02  9.3812e-03  1.0003e-02  1.9260e-04  2.4530e-05  0:01:04  462
   539  9.9767e-03  1.5288e-02  9.4328e-03  1.0037e-02  1.9277e-04  2.4417e-05  0:00:51  461

  iter  continuity  x-velocity  y-velocity      energy           k       omega     time/iter
   540  9.9710e-03  1.5385e-02  9.4823e-03  1.0070e-02  1.9515e-04  2.4332e-05  0:02:13  460
   541  9.9626e-03  1.5449e-02  9.5114e-03  1.0097e-02  1.9838e-04  2.4328e-05  0:01:46  459
   542  9.9425e-03  1.5480e-02  9.4970e-03  1.0108e-02  2.0314e-04  2.4327e-05  0:01:25  458
   543  9.9090e-03  1.5519e-02  9.4411e-03  1.0108e-02  2.0929e-04  2.4326e-05  0:01:08  457
   544  9.8726e-03  1.5560e-02  9.4224e-03  1.0106e-02  2.2336e-04  2.4294e-05  0:00:54  456
   545  9.8348e-03  1.5606e-02  9.4108e-03  1.0099e-02  2.2749e-04  2.4501e-05  0:02:14  455
   546  9.7800e-03  1.5623e-02  9.3769e-03  1.0075e-02  2.3156e-04  2.4632e-05  0:01:47  454
   547  9.7297e-03  1.5638e-02  9.3594e-03  1.0057e-02  2.3586e-04  2.4645e-05  0:01:25  453
   548  9.6705e-03  1.5623e-02  9.3218e-03  1.0024e-02  2.4251e-04  2.4664e-05  0:01:08  452
   549  9.6225e-03  1.5586e-02  9.2616e-03  9.9985e-03  2.4734e-04  2.4614e-05  0:00:54  451
   550  9.5743e-03  1.5553e-02  9.1963e-03  9.9729e-03  2.5209e-04  2.4564e-05  0:00:43  450

  iter  continuity  x-velocity  y-velocity      energy           k       omega     time/iter
   551  9.5268e-03  1.5541e-02  9.1317e-03  9.9465e-03  2.4997e-04  2.4586e-05  0:02:04  449
   552  9.4873e-03  1.5550e-02  9.0719e-03  9.9342e-03  2.3829e-04  2.4607e-05  0:01:39  448
   553  9.4552e-03  1.5556e-02  9.0081e-03  9.9306e-03  2.2656e-04  2.4664e-05  0:01:19  447
   554  9.4328e-03  1.5556e-02  8.9522e-03  9.9363e-03  2.1756e-04  2.4762e-05  0:01:03  446
   555  9.4093e-03  1.5544e-02  8.8938e-03  9.9384e-03  2.0510e-04  2.4835e-05  0:00:51  445
   556  9.3681e-03  1.5516e-02  8.8043e-03  9.9225e-03  1.9416e-04  2.4976e-05  0:02:09  444
   557  9.3394e-03  1.5506e-02  8.7475e-03  9.9204e-03  1.8525e-04  2.5129e-05  0:01:43  443
   558  9.3093e-03  1.5478e-02  8.7149e-03  9.9153e-03  1.7891e-04  2.5405e-05  0:01:22  442
   559  9.2901e-03  1.5521e-02  8.7140e-03  9.9340e-03  1.7410e-04  2.4961e-05  0:01:06  441
   560  9.2889e-03  1.5592e-02  8.7367e-03  9.9743e-03  1.7042e-04  2.5185e-05  0:00:52  440
   561  9.2855e-03  1.5641e-02  8.7748e-03  1.0012e-02  1.6736e-04  2.5427e-05  0:00:42  439

  iter  continuity  x-velocity  y-velocity      energy           k       omega     time/iter
   562  9.2638e-03  1.5676e-02  8.8127e-03  1.0017e-02  1.6621e-04  2.5629e-05  0:02:01  438
   563  9.2470e-03  1.5742e-02  8.8479e-03  1.0020e-02  1.6395e-04  2.5829e-05  0:01:37  437
   564  9.2072e-03  1.5750e-02  8.8655e-03  9.9898e-03  1.6250e-04  2.6007e-05  0:01:17  436
   565  9.1495e-03  1.5736e-02  8.8661e-03  9.9412e-03  1.6402e-04  2.6159e-05  0:01:02  435
   566  9.0906e-03  1.5702e-02  8.8317e-03  9.8927e-03  1.6830e-04  2.6299e-05  0:00:49  434
   567  9.0323e-03  1.5628e-02  8.7809e-03  9.8431e-03  1.6888e-04  2.6375e-05  0:02:06  433
   568  8.9756e-03  1.5586e-02  8.7342e-03  9.7944e-03  1.7761e-04  2.6433e-05  0:01:40  432
   569  8.9272e-03  1.5590e-02  8.6874e-03  9.7598e-03  1.7559e-04  2.6356e-05  0:01:20  431
   570  8.8795e-03  1.5580e-02  8.6387e-03  9.7285e-03  1.7763e-04  2.6334e-05  0:01:04  430
   571  8.8428e-03  1.5593e-02  8.5990e-03  9.7122e-03  1.8190e-04  2.6270e-05  0:00:51  429
   572  8.8091e-03  1.5589e-02  8.5668e-03  9.6942e-03  1.8881e-04  2.6165e-05  0:00:41  428

  iter  continuity  x-velocity  y-velocity      energy           k       omega     time/iter
   573  8.7819e-03  1.5596e-02  8.5331e-03  9.6845e-03  1.9652e-04  2.6055e-05  0:01:58  427
   574  8.7466e-03  1.5571e-02  8.5027e-03  9.6626e-03  2.1288e-04  2.6427e-05  0:01:34  426
   575  8.7071e-03  1.5541e-02  8.4638e-03  9.6351e-03  2.3252e-04  2.6190e-05  0:01:15  425
   576  8.6673e-03  1.5519e-02  8.4265e-03  9.6053e-03  2.5286e-04  2.6009e-05  0:01:00  424
   577  8.6326e-03  1.5513e-02  8.4028e-03  9.5792e-03  2.7161e-04  2.5855e-05  0:00:48  423
   578  8.6012e-03  1.5487e-02  8.3800e-03  9.5563e-03  2.8986e-04  2.5666e-05  0:02:03  422
   579  8.5725e-03  1.5425e-02  8.3119e-03  9.5437e-03  3.0899e-04  2.6509e-05  0:01:38  421
   580  8.5580e-03  1.5418e-02  8.2686e-03  9.5528e-03  3.2310e-04  2.6081e-05  0:01:18  420
   581  8.5525e-03  1.5458e-02  8.2437e-03  9.5715e-03  3.3455e-04  2.5863e-05  0:01:02  419
   582  8.5352e-03  1.5468e-02  8.2091e-03  9.5722e-03  3.5035e-04  2.5685e-05  0:00:50  418
   583  8.4707e-03  1.5463e-02  8.1293e-03  9.5228e-03  3.7480e-04  2.5578e-05  0:00:40  417

  iter  continuity  x-velocity  y-velocity      energy           k       omega     time/iter
   584  8.4192e-03  1.5436e-02  8.0960e-03  9.4850e-03  3.9369e-04  2.5448e-05  0:01:55  416
   585  8.3597e-03  1.5353e-02  8.0447e-03  9.4342e-03  4.0712e-04  2.5379e-05  0:01:32  415
   586  8.3045e-03  1.5271e-02  7.9742e-03  9.3875e-03  4.1769e-04  2.5355e-05  0:01:13  414
   587  8.2592e-03  1.5199e-02  7.8929e-03  9.3542e-03  4.2524e-04  2.5325e-05  0:00:58  413
   588  8.2274e-03  1.5162e-02  7.8291e-03  9.3385e-03  4.4456e-04  2.5316e-05  0:00:47  412
   589  8.2006e-03  1.5141e-02  7.7722e-03  9.3275e-03  4.8401e-04  2.5194e-05  0:00:37  411
   590  8.1574e-03  1.5086e-02  7.6998e-03  9.2925e-03  5.3432e-04  2.5242e-05  0:01:52  410
   591  8.1321e-03  1.5076e-02  7.6498e-03  9.2801e-03  6.0476e-04  2.5157e-05  0:01:29  409
   592  8.1196e-03  1.5097e-02  7.6182e-03  9.2840e-03  6.9055e-04  2.4898e-05  0:01:11  408
   593  8.1161e-03  1.5143e-02  7.6094e-03  9.3001e-03  7.3273e-04  2.4686e-05  0:00:57  407
   594  8.1181e-03  1.5225e-02  7.6102e-03  9.3265e-03  7.4264e-04  2.4565e-05  0:00:45  406

  iter  continuity  x-velocity  y-velocity      energy           k       omega     time/iter
   595  8.1053e-03  1.5263e-02  7.6005e-03  9.3224e-03  7.6262e-04  2.4457e-05  0:01:57  405
   596  8.0898e-03  1.5290e-02  7.5875e-03  9.3086e-03  7.8349e-04  2.4293e-05  0:01:33  404
   597  8.0581e-03  1.5303e-02  7.5618e-03  9.2760e-03  7.8995e-04  2.4140e-05  0:01:15  403
   598  8.0386e-03  1.5339e-02  7.5560e-03  9.2592e-03  7.4348e-04  2.3997e-05  0:01:00  402
   599  8.0375e-03  1.5428e-02  7.5618e-03  9.2704e-03  6.5763e-04  2.3814e-05  0:00:48  401
   600  8.0383e-03  1.5499e-02  7.5674e-03  9.2825e-03  4.2592e-04  2.3607e-05  0:00:38  400
   601  8.0447e-03  1.5576e-02  7.5927e-03  9.3019e-03  3.4174e-04  2.3408e-05  0:01:50  399
   602  8.0376e-03  1.5629e-02  7.6181e-03  9.3038e-03  4.1073e-04  2.3221e-05  0:01:28  398
   603  8.0453e-03  1.5729e-02  7.6450e-03  9.3264e-03  4.6593e-04  2.3023e-05  0:01:10  397
   604  8.0524e-03  1.5745e-02  7.6459e-03  9.3469e-03  4.7398e-04  2.2754e-05  0:00:56  396
   605  8.0350e-03  1.5694e-02  7.6264e-03  9.3362e-03  4.5307e-04  2.2517e-05  0:00:45  395

  iter  continuity  x-velocity  y-velocity      energy           k       omega     time/iter
   606  8.0039e-03  1.5633e-02  7.5937e-03  9.3044e-03  4.1832e-04  2.2305e-05  0:01:54  394
   607  7.9700e-03  1.5587e-02  7.5661e-03  9.2672e-03  3.8155e-04  2.2100e-05  0:01:31  393
   608  7.9362e-03  1.5543e-02  7.5423e-03  9.2302e-03  3.5268e-04  2.1883e-05  0:01:13  392
[...]
(cx-gui-do cx-set-text-entry "Solution XY Plot*Table1*TextEntry4(XY Plot Name)" "static_pressure_across_shock")
(cx-gui-do cx-activate-item "Solution XY Plot*PanelButtons*PushButton1(OK)")
(cx-gui-do cx-activate-item "Solution XY Plot*PanelButtons*PushButton2(Cancel)")
(cx-gui-do cx-set-list-tree-selections "NavigationPane*Frame2*Table1*List_Tree2" (list "Results|Plots|XY Plot"))
(cx-gui-do cx-set-list-tree-selections "NavigationPane*Frame2*Table1*List_Tree2" (list "Results|Plots|XY Plot"))
(cx-gui-do cx-activate-item "NavigationPane*Frame2*Table1*List_Tree2")
(cx-gui-do cx-set-list-tree-selections "NavigationPane*Frame2*Table1*List_Tree2" (list "Results|Plots|XY Plot"))
(cx-gui-do cx-set-text-entry "Solution XY Plot*Table1*TextEntry4(XY Plot Name)" "total_pressure_across_shock")
(cx-gui-do cx-set-list-selections "Solution XY Plot*Table1*Table3*Frame3*List1(Surfaces)" '( 2))
(cx-gui-do cx-activate-item "Solution XY Plot*Table1*Table3*Frame3*List1(Surfaces)")
(cx-gui-do cx-set-list-selections "Solution XY Plot*Table1*Table3*Frame3*List1(Surfaces)" '( 2))
(cx-gui-do cx-activate-item "Solution XY Plot*Table1*Table3*Frame3*List1(Surfaces)")
(cx-gui-do cx-set-list-selections "Solution XY Plot*Table1*Table3*Frame3*List1(Surfaces)" '( 2))
(cx-gui-do cx-activate-item "Solution XY Plot*Table1*Table3*Frame3*List1(Surfaces)")
(cx-gui-do cx-set-list-selections "Solution XY Plot*Table1*Table3*Table1*DropDownList2" '( 4))
(cx-gui-do cx-activate-item "Solution XY Plot*Table1*Table3*Table1*DropDownList2")
(cx-gui-do cx-activate-item "Solution XY Plot*PanelButtons*PushButton1(OK)")
(cx-gui-do cx-activate-item "Solution XY Plot*PanelButtons*PushButton2(Cancel)")
(cx-gui-do cx-set-list-tree-selections "NavigationPane*Frame2*Table1*List_Tree2" (list "Results|Plots|XY Plot"))
(cx-gui-do cx-set-list-tree-selections "NavigationPane*Frame2*Table1*List_Tree2" (list "Results|Plots|XY Plot"))
(cx-gui-do cx-activate-item "NavigationPane*Frame2*Table1*List_Tree2")
(cx-gui-do cx-set-list-tree-selections "NavigationPane*Frame2*Table1*List_Tree2" (list "Results|Plots|XY Plot"))
(cx-gui-do cx-set-text-entry "Solution XY Plot*Table1*TextEntry4(XY Plot Name)" "density_across_shock")
(cx-gui-do cx-set-list-selections "Solution XY Plot*Table1*Table3*Table1*DropDownList1(Y Axis Function)" '( 1))
(cx-gui-do cx-activate-item "Solution XY Plot*Table1*Table3*Table1*DropDownList1(Y Axis Function)")
(cx-gui-do cx-set-list-selections "Solution XY Plot*Table1*Table3*Frame3*List1(Surfaces)" '( 2))
(cx-gui-do cx-activate-item "Solution XY Plot*Table1*Table3*Frame3*List1(Surfaces)")
(cx-gui-do cx-activate-item "Solution XY Plot*PanelButtons*PushButton1(OK)")
(cx-gui-do cx-activate-item "Solution XY Plot*PanelButtons*PushButton2(Cancel)")
(cx-gui-do cx-set-list-tree-selections "NavigationPane*Frame2*Table1*List_Tree2" (list "Results|Plots|XY Plot"))
(cx-gui-do cx-set-list-tree-selections "NavigationPane*Frame2*Table1*List_Tree2" (list "Results|Plots|XY Plot"))
(cx-gui-do cx-activate-item "NavigationPane*Frame2*Table1*List_Tree2")
(cx-gui-do cx-set-list-tree-selections "NavigationPane*Frame2*Table1*List_Tree2" (list "Results|Plots|XY Plot"))
(cx-gui-do cx-set-text-entry "Solution XY Plot*Table1*TextEntry4(XY Plot Name)" "sound_speed_across_shock")
(cx-gui-do cx-set-list-selections "Solution XY Plot*Table1*Table3*Table1*DropDownList1(Y Axis Function)" '( 5))
(cx-gui-do cx-activate-item "Solution XY Plot*Table1*Table3*Table1*DropDownList1(Y Axis Function)")
(cx-gui-do cx-set-list-selections "Solution XY Plot*Table1*Table3*Table1*DropDownList2" '( 6))
(cx-gui-do cx-activate-item "Solution XY Plot*Table1*Table3*Table1*DropDownList2")
(cx-gui-do cx-set-list-selections "Solution XY Plot*Table1*Table1*List2(File Data)" '())
(cx-gui-do cx-activate-item "Solution XY Plot*Table1*Table1*List2(File Data)")
(cx-gui-do cx-set-list-selections "Solution XY Plot*Table1*Table3*Frame3*List1(Surfaces)" '( 2))
(cx-gui-do cx-activate-item "Solution XY Plot*Table1*Table3*Frame3*List1(Surfaces)")
(cx-gui-do cx-activate-item "Solution XY Plot*PanelButtons*PushButton1(OK)")
(cx-gui-do cx-activate-item "Solution XY Plot*PanelButtons*PushButton2(Cancel)")
(cx-gui-do cx-activate-item "Ribbon*Frame1*Frame6(Results)*Table1*Table3(Surface)*PushButton1(Create)")
(cx-gui-do cx-activate-item "MenuBar*PopupMenuCreate*Zone...")
(cx-gui-do cx-activate-item "Zone Surface*PanelButtons*PushButton2(Cancel)")
(cx-gui-do cx-activate-item "Ribbon*Frame1*Frame6(Results)*Table1*Table3(Surface)*PushButton1(Create)")
(cx-gui-do cx-activate-item "MenuBar*PopupMenuCreate*Partition...")
(cx-gui-do cx-set-toggle-button2 "Partition Surface*Table1*ToggleBox1(Options)*CheckButton1(Cells)" #t)
(cx-gui-do cx-activate-item "Partition Surface*Table1*ToggleBox1(Options)*CheckButton1(Cells)")
(cx-gui-do cx-set-toggle-button2 "Partition Surface*Table1*ToggleBox1(Options)*CheckButton2(Interior)" #f)
(cx-gui-do cx-activate-item "Partition Surface*Table1*ToggleBox1(Options)*CheckButton2(Interior)")
(cx-gui-do cx-activate-item "Partition Surface*PanelButtons*PushButton2(Cancel)")
(cx-gui-do cx-activate-item "Ribbon*Frame1*Frame6(Results)*Table1*Table3(Surface)*PushButton1(Create)")
(cx-gui-do cx-activate-item "MenuBar*PopupMenuCreate*Line/Rake...")
(cx-gui-do cx-activate-item "Line/Rake Surface*PanelButtons*PushButton2(Cancel)")
(cx-gui-do cx-activate-item "Ribbon*Frame1*Frame6(Results)*Table1*Table3(Surface)*PushButton1(Create)")
(cx-gui-do cx-activate-item "MenuBar*PopupMenuCreate*Zone...")
(cx-gui-do cx-set-list-selections "Zone Surface*List1(Zone)" '( 2 3))
(cx-gui-do cx-activate-item "Zone Surface*List1(Zone)")
(cx-gui-do cx-set-list-selections "Zone Surface*List1(Zone)" '( 3))
(cx-gui-do cx-activate-item "Zone Surface*List1(Zone)")
(cx-gui-do cx-activate-item "Zone Surface*PanelButtons*PushButton4(Manage)")
(cx-gui-do cx-set-list-selections "Surfaces*Table1*List1(Surfaces)" '( 8))
(cx-gui-do cx-activate-item "Surfaces*Table1*List1(Surfaces)")
(cx-gui-do cx-activate-item "Surfaces*PanelButtons*PushButton2(Cancel)")
(cx-gui-do cx-activate-item "Zone Surface*PanelButtons*PushButton1(OK)")
(cx-gui-do cx-activate-item "Zone Surface*PanelButtons*PushButton4(Manage)")
(cx-gui-do cx-set-list-selections "Surfaces*Table1*List1(Surfaces)" '( 8 19))
(cx-gui-do cx-activate-item "Surfaces*Table1*List1(Surfaces)")
(cx-gui-do cx-set-list-selections "Surfaces*Table1*List1(Surfaces)" '( 19))
(cx-gui-do cx-activate-item "Surfaces*Table1*List1(Surfaces)")
(cx-gui-do cx-activate-item "Surfaces*PanelButtons*PushButton4(Delete)")
(cx-gui-do cx-activate-item "Surfaces*PanelButtons*PushButton2(Cancel)")
(cx-gui-do cx-activate-item "Zone Surface*PanelButtons*PushButton2(Cancel)")
(cx-gui-do cx-set-list-tree-selections "NavigationPane*Frame2*Table1*List_Tree2" (list "Results|Plots|XY Plot"))
(cx-gui-do cx-set-list-tree-selections "NavigationPane*Frame2*Table1*List_Tree2" (list "Results|Plots|XY Plot"))
(cx-gui-do cx-activate-item "NavigationPane*Frame2*Table1*List_Tree2")
(cx-gui-do cx-set-list-tree-selections "NavigationPane*Frame2*Table1*List_Tree2" (list "Results|Plots|XY Plot"))
(cx-gui-do cx-set-text-entry "Solution XY Plot*Table1*TextEntry4(XY Plot Name)" "wall_stanton")
(cx-gui-do cx-set-list-selections "Solution XY Plot*Table1*Table3*Table1*DropDownList1(Y Axis Function)" '( 6))
(cx-gui-do cx-activate-item "Solution XY Plot*Table1*Table3*Table1*DropDownList1(Y Axis Function)")
(cx-gui-do cx-set-list-selections "Solution XY Plot*Table1*Table3*Table1*DropDownList2" '( 10))
(cx-gui-do cx-activate-item "Solution XY Plot*Table1*Table3*Table1*DropDownList2")
(cx-gui-do cx-set-list-selections "Solution XY Plot*Table1*Table3*Frame3*List1(Surfaces)" '( 8))
(cx-gui-do cx-activate-item "Solution XY Plot*Table1*Table3*Frame3*List1(Surfaces)")
(cx-gui-do cx-activate-item "Solution XY Plot*Table1*Table3*PushButton4(New Surface)")
(cx-gui-do cx-activate-item "MenuBar*PopupMenuNewSurface*Iso-Surface...")
(cx-gui-do cx-activate-item "Iso-Surface*PanelButtons*PushButton2(Cancel)")
(cx-gui-do cx-activate-item "Solution XY Plot*Table1*Table3*PushButton4(New Surface)")
(cx-gui-do cx-activate-item "MenuBar*PopupMenuNewSurface*Iso-Clip...")
(cx-gui-do cx-activate-item "Iso-Clip*PanelButtons*PushButton2(Cancel)")
(cx-gui-do cx-activate-item "Solution XY Plot*PanelButtons*PushButton5(Axes)")
(cx-gui-do cx-set-toggle-button2 "Axes - Solution XY Plot*Table1*ToggleBox2(Options)*CheckButton3(Major Gridlines)" #t)
(cx-gui-do cx-activate-item "Axes - Solution XY Plot*Table1*ToggleBox2(Options)*CheckButton3(Major Gridlines)")
(cx-gui-do cx-set-toggle-button2 "Axes - Solution XY Plot*Table1*ToggleBox2(Options)*CheckButton4(Minor Gridlines)" #t)
(cx-gui-do cx-activate-item "Axes - Solution XY Plot*Table1*ToggleBox2(Options)*CheckButton4(Minor Gridlines)")
(cx-gui-do cx-activate-item "Axes - Solution XY Plot*PanelButtons*PushButton1(OK)")
(cx-gui-do cx-activate-item "Axes - Solution XY Plot*PanelButtons*PushButton1(OK)")
(cx-gui-do cx-activate-item "Axes - Solution XY Plot*PanelButtons*PushButton2(Cancel)")
(cx-gui-do cx-activate-item "Solution XY Plot*PanelButtons*PushButton1(OK)")
(cx-gui-do cx-activate-item "Solution XY Plot*PanelButtons*PushButton4(Curves)")
(cx-gui-do cx-set-list-selections "Curves - Solution XY Plot*Frame3(Marker Style)*DropDownList1(Symbol)" '( 4))
(cx-gui-do cx-activate-item "Curves - Solution XY Plot*Frame3(Marker Style)*DropDownList1(Symbol)")
(cx-gui-do cx-activate-item "Curves - Solution XY Plot*PanelButtons*PushButton1(OK)")
(cx-gui-do cx-set-integer-entry "Curves - Solution XY Plot*Frame1*IntegerEntry1(Curve #)" 1)
(cx-gui-do cx-activate-item "Curves - Solution XY Plot*Frame1*IntegerEntry1(Curve #)")
(cx-gui-do cx-set-integer-entry "Curves - Solution XY Plot*Frame1*IntegerEntry1(Curve #)" 0)
(cx-gui-do cx-activate-item "Curves - Solution XY Plot*Frame1*IntegerEntry1(Curve #)")
(cx-gui-do cx-set-integer-entry "Curves - Solution XY Plot*Frame1*IntegerEntry1(Curve #)" 1)
(cx-gui-do cx-activate-item "Curves - Solution XY Plot*Frame1*IntegerEntry1(Curve #)")
(cx-gui-do cx-set-integer-entry "Curves - Solution XY Plot*Frame1*IntegerEntry1(Curve #)" 2)
(cx-gui-do cx-activate-item "Curves - Solution XY Plot*Frame1*IntegerEntry1(Curve #)")
(cx-gui-do cx-set-integer-entry "Curves - Solution XY Plot*Frame1*IntegerEntry1(Curve #)" 1)
(cx-gui-do cx-activate-item "Curves - Solution XY Plot*Frame1*IntegerEntry1(Curve #)")
(cx-gui-do cx-set-integer-entry "Curves - Solution XY Plot*Frame1*IntegerEntry1(Curve #)" 0)
(cx-gui-do cx-activate-item "Curves - Solution XY Plot*Frame1*IntegerEntry1(Curve #)")
(cx-gui-do cx-activate-item "Curves - Solution XY Plot*PanelButtons*PushButton1(OK)")
(cx-gui-do cx-activate-item "Curves - Solution XY Plot*PanelButtons*PushButton2(Cancel)")
(cx-gui-do cx-set-toggle-button2 "Solution XY Plot*Table1*Table1*ButtonBox1(Options)*CheckButton2(Position on X Axis)" #f)
(cx-gui-do cx-activate-item "Solution XY Plot*Table1*Table1*ButtonBox1(Options)*CheckButton2(Position on X Axis)")
(cx-gui-do cx-set-toggle-button2 "Solution XY Plot*Table1*Table1*ButtonBox1(Options)*CheckButton3(Position on Y Axis)" #t)
(cx-gui-do cx-activate-item "Solution XY Plot*Table1*Table1*ButtonBox1(Options)*CheckButton3(Position on Y Axis)")
(cx-gui-do cx-set-real-entry-list "Solution XY Plot*Table1*Table2*ButtonBox1(Plot Direction)*RealEntry2(Y)" '( 1))
(cx-gui-do cx-set-real-entry-list "Solution XY Plot*Table1*Table2*ButtonBox1(Plot Direction)*RealEntry1(X)" '( 0))
(cx-gui-do cx-set-list-selections "Solution XY Plot*Table1*Table3*Table2*DropDownList1(X Axis Function)" '( 6))
(cx-gui-do cx-activate-item "Solution XY Plot*Table1*Table3*Table2*DropDownList1(X Axis Function)")
(cx-gui-do cx-set-list-selections "Solution XY Plot*Table1*Table3*Table2*DropDownList2" '( 10))
(cx-gui-do cx-activate-item "Solution XY Plot*Table1*Table3*Table2*DropDownList2")
(cx-gui-do cx-activate-item "Solution XY Plot*PanelButtons*PushButton1(OK)")
(cx-gui-do cx-activate-item "Solution XY Plot*PanelButtons*PushButton4(Curves)")
(cx-gui-do cx-activate-item "Curves - Solution XY Plot*PanelButtons*PushButton2(Cancel)")
(cx-gui-do cx-activate-item "Solution XY Plot*PanelButtons*PushButton5(Axes)")
(cx-gui-do cx-activate-item "Solution XY Plot*PanelButtons*PushButton4(Curves)")
(cx-gui-do cx-activate-item "Curves - Solution XY Plot*PanelButtons*PushButton2(Cancel)")
(cx-gui-do cx-set-toggle-button2 "Axes - Solution XY Plot*Table1*Frame1*ToggleBox1(Axis)*Y" #t)
(cx-gui-do cx-activate-item "Axes - Solution XY Plot*Table1*Frame1*ToggleBox1(Axis)*Y")
(cx-gui-do cx-set-list-selections "Axes - Solution XY Plot*Table1*Table3(Number Format)*DropDownList1(Type)" '( 1))
(cx-gui-do cx-activate-item "Axes - Solution XY Plot*Table1*Table3(Number Format)*DropDownList1(Type)")
(cx-gui-do cx-set-integer-entry "Axes - Solution XY Plot*Table1*Table3(Number Format)*Table2*IntegerEntry1(Precision)" 1)
(cx-gui-do cx-activate-item "Axes - Solution XY Plot*Table1*Table3(Number Format)*Table2*IntegerEntry1(Precision)")
(cx-gui-do cx-set-integer-entry "Axes - Solution XY Plot*Table1*Table3(Number Format)*Table2*IntegerEntry1(Precision)" 0)
(cx-gui-do cx-activate-item "Axes - Solution XY Plot*Table1*Table3(Number Format)*Table2*IntegerEntry1(Precision)")
(cx-gui-do cx-activate-item "Axes - Solution XY Plot*PanelButtons*PushButton1(OK)")
(cx-gui-do cx-set-integer-entry "Axes - Solution XY Plot*Table1*Table3(Number Format)*Table2*IntegerEntry1(Precision)" 1)
(cx-gui-do cx-activate-item "Axes - Solution XY Plot*Table1*Table3(Number Format)*Table2*IntegerEntry1(Precision)")
(cx-gui-do cx-activate-item "Axes - Solution XY Plot*PanelButtons*PushButton1(OK)")
(cx-gui-do cx-set-list-selections "Axes - Solution XY Plot*Table1*Table3(Number Format)*Table2*DropDownList2(Size)" '( 4))
(cx-gui-do cx-activate-item "Axes - Solution XY Plot*Table1*Table3(Number Format)*Table2*DropDownList2(Size)")
(cx-gui-do cx-set-list-selections "Axes - Solution XY Plot*Table1*Table3(Number Format)*DropDownList1(Type)" '( 1))
(cx-gui-do cx-activate-item "Axes - Solution XY Plot*Table1*Table3(Number Format)*DropDownList1(Type)")
(cx-gui-do cx-set-list-selections "Axes - Solution XY Plot*Table1*Table3(Number Format)*Table2*DropDownList2(Size)" '( 10))
(cx-gui-do cx-activate-item "Axes - Solution XY Plot*Table1*Table3(Number Format)*Table2*DropDownList2(Size)")
(cx-gui-do cx-activate-item "Axes - Solution XY Plot*PanelButtons*PushButton1(OK)")
(cx-gui-do cx-set-list-selections "Axes - Solution XY Plot*Table1*Table3(Number Format)*Table2*DropDownList2(Size)" '( 4))
(cx-gui-do cx-activate-item "Axes - Solution XY Plot*Table1*Table3(Number Format)*Table2*DropDownList2(Size)")
(cx-gui-do cx-activate-item "Axes - Solution XY Plot*PanelButtons*PushButton1(OK)")
(cx-gui-do cx-set-list-selections "Axes - Solution XY Plot*Table1*Frame1*Table2*DropDownList2(Size)" '( 10))
(cx-gui-do cx-activate-item "Axes - Solution XY Plot*Table1*Frame1*Table2*DropDownList2(Size)")
(cx-gui-do cx-activate-item "Axes - Solution XY Plot*PanelButtons*PushButton1(OK)")
(cx-gui-do cx-set-integer-entry "Axes - Solution XY Plot*Table1*Table3(Number Format)*Table2*IntegerEntry1(Precision)" 2)
(cx-gui-do cx-activate-item "Axes - Solution XY Plot*Table1*Table3(Number Format)*Table2*IntegerEntry1(Precision)")
(cx-gui-do cx-activate-item "Axes - Solution XY Plot*PanelButtons*PushButton1(OK)")
(cx-gui-do cx-set-list-selections "Axes - Solution XY Plot*Table1*Table3(Number Format)*DropDownList1(Type)" '( 0))
(cx-gui-do cx-activate-item "Axes - Solution XY Plot*Table1*Table3(Number Format)*DropDownList1(Type)")
(cx-gui-do cx-activate-item "Axes - Solution XY Plot*PanelButtons*PushButton1(OK)")
(cx-gui-do cx-set-list-selections "Axes - Solution XY Plot*Table1*Table3(Number Format)*DropDownList1(Type)" '( 1))
(cx-gui-do cx-activate-item "Axes - Solution XY Plot*Table1*Table3(Number Format)*DropDownList1(Type)")
(cx-gui-do cx-activate-item "Axes - Solution XY Plot*PanelButtons*PushButton1(OK)")
(cx-gui-do cx-set-toggle-button2 "Axes - Solution XY Plot*Table1*ToggleBox2(Options)*CheckButton3(Major Gridlines)" #t)
(cx-gui-do cx-activate-item "Axes - Solution XY Plot*Table1*ToggleBox2(Options)*CheckButton3(Major Gridlines)")
(cx-gui-do cx-set-toggle-button2 "Axes - Solution XY Plot*Table1*ToggleBox2(Options)*CheckButton4(Minor Gridlines)" #t)
(cx-gui-do cx-activate-item "Axes - Solution XY Plot*Table1*ToggleBox2(Options)*CheckButton4(Minor Gridlines)")
(cx-gui-do cx-activate-item "Axes - Solution XY Plot*PanelButtons*PushButton1(OK)")
(cx-gui-do cx-set-toggle-button2 "Axes - Solution XY Plot*Table1*ToggleBox2(Options)*CheckButton3(Major Gridlines)" #f)
(cx-gui-do cx-activate-item "Axes - Solution XY Plot*Table1*ToggleBox2(Options)*CheckButton3(Major Gridlines)")
(cx-gui-do cx-activate-item "Axes - Solution XY Plot*PanelButtons*PushButton1(OK)")
(cx-gui-do cx-set-toggle-button2 "Axes - Solution XY Plot*Table1*ToggleBox2(Options)*CheckButton3(Major Gridlines)" #t)
(cx-gui-do cx-activate-item "Axes - Solution XY Plot*Table1*ToggleBox2(Options)*CheckButton3(Major Gridlines)")
(cx-gui-do cx-activate-item "Axes - Solution XY Plot*PanelButtons*PushButton1(OK)")
(cx-gui-do cx-set-toggle-button2 "Axes - Solution XY Plot*Table1*Frame1*ToggleBox1(Axis)*X" #t)
(cx-gui-do cx-activate-item "Axes - Solution XY Plot*Table1*Frame1*ToggleBox1(Axis)*X")
(cx-gui-do cx-set-toggle-button2 "Axes - Solution XY Plot*Table1*ToggleBox2(Options)*CheckButton3(Major Gridlines)" #f)
(cx-gui-do cx-activate-item "Axes - Solution XY Plot*Table1*ToggleBox2(Options)*CheckButton3(Major Gridlines)")
(cx-gui-do cx-activate-item "Axes - Solution XY Plot*PanelButtons*PushButton1(OK)")
(cx-gui-do cx-activate-item "Axes - Solution XY Plot*PanelButtons*PushButton2(Cancel)")
(cx-gui-do cx-activate-item "Solution XY Plot*PanelButtons*PushButton4(Curves)")
(cx-gui-do cx-set-integer-entry "Curves - Solution XY Plot*Frame1*IntegerEntry1(Curve #)" 1)
(cx-gui-do cx-activate-item "Curves - Solution XY Plot*Frame1*IntegerEntry1(Curve #)")
(cx-gui-do cx-set-integer-entry "Curves - Solution XY Plot*Frame1*IntegerEntry1(Curve #)" 0)
(cx-gui-do cx-activate-item "Curves - Solution XY Plot*Frame1*IntegerEntry1(Curve #)")
(cx-gui-do cx-activate-item "Curves - Solution XY Plot*PanelButtons*PushButton2(Cancel)")
(cx-gui-do cx-activate-item "Solution XY Plot*PanelButtons*PushButton1(OK)")
(cx-gui-do cx-activate-item "Solution XY Plot*PanelButtons*PushButton2(Cancel)")
(cx-gui-do cx-set-list-tree-selections "NavigationPane*Frame2*Table1*List_Tree2" (list "Results|Plots|XY Plot"))
(cx-gui-do cx-list-tree-right-click "NavigationPane*Frame2*Table1*List_Tree2" )
(cx-gui-do cx-activate-item "MenuBar*PopupMenuTree-XY Plot*New...")
(cx-gui-do cx-set-toggle-button2 "Solution XY Plot*Table1*Table1*ButtonBox1(Options)*CheckButton2(Position on X Axis)" #f)
(cx-gui-do cx-activate-item "Solution XY Plot*Table1*Table1*ButtonBox1(Options)*CheckButton2(Position on X Axis)")
(cx-gui-do cx-set-toggle-button2 "Solution XY Plot*Table1*Table1*ButtonBox1(Options)*CheckButton3(Position on Y Axis)" #t)
(cx-gui-do cx-activate-item "Solution XY Plot*Table1*Table1*ButtonBox1(Options)*CheckButton3(Position on Y Axis)")
(cx-gui-do cx-set-real-entry-list "Solution XY Plot*Table1*Table2*ButtonBox1(Plot Direction)*RealEntry2(Y)" '( 1))
(cx-gui-do cx-set-real-entry-list "Solution XY Plot*Table1*Table2*ButtonBox1(Plot Direction)*RealEntry1(X)" '( 0))
(cx-gui-do cx-set-list-selections "Solution XY Plot*Table1*Table3*Table2*DropDownList1(X Axis Function)" '( 6))
(cx-gui-do cx-activate-item "Solution XY Plot*Table1*Table3*Table2*DropDownList1(X Axis Function)")
(cx-gui-do cx-set-list-selections "Solution XY Plot*Table1*Table3*Table2*DropDownList2" '( 3))
(cx-gui-do cx-activate-item "Solution XY Plot*Table1*Table3*Table2*DropDownList2")
(cx-gui-do cx-set-list-selections "Solution XY Plot*Table1*Table3*Frame3*List1(Surfaces)" '( 8))
(cx-gui-do cx-activate-item "Solution XY Plot*Table1*Table3*Frame3*List1(Surfaces)")
