Auto-Transcript Start Time:  17:34:07, 07 Apr 2025 Malay Peninsula Standard Time 
Current Directory: "C:\Users\cvest\Claudio\Oxford\3rd Year\B3\CubeSat_project\Claudio\Aerothermal\CFD\2d Sim"

              Welcome to ANSYS Fluent 2024 R2

              Copyright 1987-2024 ANSYS, Inc. All Rights Reserved.
              Unauthorized use, distribution or duplication is prohibited.
              This product is subject to U.S. laws governing export and re-export.
              For full Legal Notice, see documentation.

Build Time: May 13 2024 11:28:30 EST  Build Id: 10192  
 
Connected License Server List:	<Shared_Web_License_Server>

     --------------------------------------------------------------
     This is a student version of ANSYS FLUENT. Usage of this product
     license is limited to the terms and conditions specified in your ANSYS
     license form, additional terms section.
     --------------------------------------------------------------
Host spawning Node 0 on machine "ClouDsBlade14" (win64).

------------------------------------------------------------------------------------------
ID    Hostname       Core  O.S.         PID     Vendor                                   
------------------------------------------------------------------------------------------
n3    ClouDsBlade14  4/16  Windows-x64  102424  AMD Ryzen 9 5900HX with Radeon Graphics  
n2    ClouDsBlade14  3/16  Windows-x64  84892   AMD Ryzen 9 5900HX with Radeon Graphics  
n1    ClouDsBlade14  2/16  Windows-x64  102732  AMD Ryzen 9 5900HX with Radeon Graphics  
n0*   ClouDsBlade14  1/16  Windows-x64  94120   AMD Ryzen 9 5900HX with Radeon Graphics  
host  ClouDsBlade14        Windows-x64  96792   AMD Ryzen 9 5900HX with Radeon Graphics  

MPI Option Selected: intel
Selected system interconnect: default
------------------------------------------------------------------------------------------

Cleanup script file is C:\\Users\\cvest\\Claudio\\Oxford\\3rd Year\\B3\\CubeSat_project\\Claudio\\Aerothermal\\CFD\\2d Sim\\cleanup-fluent-ClouDsBlade14-96792.bat

Posting ANSYS Product Improvement Program startup data
Done.

> (cx-gui-do cx-activate-item "MenuBar*ReadSubMenu*Case & Data...")
(cx-gui-do cx-set-file-dialog-entries "Select File" '( "C:/Users/cvest/Claudio/Oxford/3rd Year/B3/CubeSat_project/Claudio/Aerothermal/CFD/2d Sim/No Refinement/With new many axes/FFF.cas.h5") "CFF Case Files (*.cas.h5 )")
Fast-loading "C:\PROGRA~1\ANSYSI~1\ANSYSS~1\v242\fluent\fluent24.2.0\\addons\afd\lib\hdfio.bin"
Done.
Multicore SMT processors detected. Processor affinity set!

Reading from ClouDsBlade14:"C:/Users/cvest/Claudio/Oxford/3rd Year/B3/CubeSat_project/Claudio/Aerothermal/CFD/2d Sim/No Refinement/With new many axes/FFF.cas.h5" in NODE0 mode ...
  Reading mesh ...
       47868 cells,     1 cell zone  ...
          47868 mixed cells,  zone id: 2
       80352 faces,     3 face zones ...
          79252 2D interior faces,  zone id: 1
            300 2D pressure-far-field faces,  zone id: 5
            800 2D wall faces,  zone id: 6
       32484 nodes,     1 node zone  ...
  Done.


Building...
     mesh
	distributing mesh
		parts....,
		faces....,
		nodes....,
		cells....,
        bandwidth reduction using Reverse Cuthill-McKee: 11271/147 = 76.6735
     materials,
     interface,
     domains,
	mixture
     zones,
	interior-surface_body
	walls
	pressure_far_field
	surface_body
     parallel,
Done.

Reading from ClouDsBlade14:"C:/Users/cvest/Claudio/Oxford/3rd Year/B3/CubeSat_project/Claudio/Aerothermal/CFD/2d Sim/No Refinement/With new many axes/FFF.dat.h5" in NODE0 mode ...


  Reading results.
Parallel variables...
Done.
(cx-gui-do cx-set-list-tree-selections "NavigationPane*Frame2*Table1*List_Tree2" (list "Setup|General""Setup|Models""Setup|Materials""Setup|Motion Definitions""Setup|Cell Zone Conditions""Setup|Boundary Conditions""Setup|Mesh Interfaces""Setup|Auxiliary Geometry Definitions""Setup|Dynamic Mesh""Setup|Reference Values""Setup|Reference Frames""Setup|Named Expressions""Solution|Methods""Solution|Controls""Solution|Report Definitions""Solution|Monitors""Solution|Cell Registers""Solution|Automatic Mesh Adaption""Solution|Initialization""Setup""Solution"))
(cx-gui-do cx-set-list-tree-selections "NavigationPane*Frame2*Table1*List_Tree2" (list "Results|Graphics|Contours|temperature"))
(cx-gui-do cx-set-list-tree-selections "NavigationPane*Frame2*Table1*List_Tree2" (list "Results|Graphics|Contours|temperature"))
(cx-gui-do cx-activate-item "NavigationPane*Frame2*Table1*List_Tree2")
(cx-gui-do cx-set-list-tree-selections "NavigationPane*Frame2*Table1*List_Tree2" (list "Results|Graphics|Contours|temperature"))
(cx-gui-do cx-activate-item "Contours*PanelButtons*PushButton1(OK)")
(cx-gui-do cx-set-list-selections "Contours*Table1*Frame3*Table1*DropDownList2" '( 1))
(cx-gui-do cx-activate-item "Contours*Table1*Frame3*Table1*DropDownList2")
(cx-gui-do cx-activate-item "Contours*PanelButtons*PushButton1(OK)")
(cx-gui-do cx-set-list-selections "Contours*Table1*Frame3*Table1*DropDownList2" '( 1))
(cx-gui-do cx-activate-item "Contours*Table1*Frame3*Table1*DropDownList2")
(cx-gui-do cx-set-list-selections "Contours*Table1*Frame3*Table1*DropDownList2" '( 0))
(cx-gui-do cx-activate-item "Contours*Table1*Frame3*Table1*DropDownList2")
(cx-gui-do cx-activate-item "Contours*PanelButtons*PushButton1(OK)")
(cx-gui-do cx-activate-item "Ribbon*Frame1*Frame2(Domain)*Table1*Table3(Adapt)*Table1*PushButton1(Manual)")
(cx-gui-do cx-activate-item "Manual Mesh Adaption*Table1*Table2*Table1*PushButton2(Cell Registers)")
(cx-gui-do cx-activate-item "MenuBar*NewSubMenu*Field Variable...")
(cx-gui-do cx-set-list-selections "Field Variable Register*Table2*DropDownList2(Derivative Option)" '( 1))
(cx-gui-do cx-activate-item "Field Variable Register*Table2*DropDownList2(Derivative Option)")
(cx-gui-do cx-activate-item "Field Variable Register*PanelButtons*PushButton5(Compute)")
(cx-gui-do cx-set-list-selections "Field Variable Register*Table2*DropDownList1(Type)" '( 2))
(cx-gui-do cx-activate-item "Field Variable Register*Table2*DropDownList1(Type)")
(cx-gui-do cx-set-text-entry "Field Variable Register*TextEntry1(Name)" "gradient_pressure_180000")
(cx-gui-do cx-set-real-entry-list "Field Variable Register*Table3*Table4*RealEntry14" '( 180000))
(cx-gui-do cx-activate-item "Field Variable Register*PanelButtons*PushButton3(Save/Display)")
106 cells marked
(cx-gui-do cx-set-expression-entry "Manual Mesh Adaption*Table1*Table1*Table1*ExpressionEntry1(Refinement Criterion)" '("gradient_pressure_180000" . 5))
(cx-gui-do cx-activate-item "Manual Mesh Adaption*Table1*Table1*Table1*ExpressionEntry1(Refinement Criterion)")
(cx-gui-do cx-activate-item "Manual Mesh Adaption*PanelButtons*PushButton1(Apply)")

 Dump usage: 47868 cells, 80352 faces, 32484 nodes

 Dump usage: 48186 cells, 80902 faces, 32716 nodes

 Grid size ( original /   adapted /    change)
     cells (    47868 /     48186 /       318)
     faces (    80352 /     80902 /       550)
     nodes (    32484 /     32716 /       232)

Info: The hanging node adaption method will not be available for 2D cases in a future release of Fluent. The PUMA 2.5D adaption method can be used instead. To use PUMA 2.5D, convert the 2D mesh to a 3D mesh with a thickness of one cell layer, and enter the following text command:
mesh/adapt/set/method puma-2.5d
Support for the hanging node method is extended to the current release, in order to provide time for you to migrate your cases to the PUMA method.

(cx-gui-do cx-activate-item "Information*OK")
(cx-gui-do cx-activate-item "Manual Mesh Adaption*PanelButtons*PushButton2(Close)")
(cx-gui-do cx-activate-item "Field Variable Register*PanelButtons*PushButton1(Close)")
(cx-gui-do cx-activate-item "Contours*PanelButtons*PushButton2(Cancel)")
(cx-gui-do cx-activate-item "Ribbon*Frame1*Frame2(Domain)*Table1*Table3(Mesh)*PushButton1(Display)")
(cx-use-window-id 51)
(cx-gui-do cx-activate-item "ToolBar*Pointer*translate")
(cx-use-window-id 51)
(dolly-camera -0.160373 0.0403116 0)
(cx-use-window-id 51)
(dolly-camera 0.0028218 -0.00537487 0)
(cx-use-window-id 51)
(dolly-camera -0.0155199 0.00895813 0)
(cx-gui-do cx-activate-item "ToolBar*Copy*savepicture")
(cx-gui-do cx-set-list-selections "Save Picture*Table1*Frame3*Frame1*Frame3(Resolution)*Table1*DropDownList3(Select Resolution)" '( 0))
(cx-gui-do cx-activate-item "Save Picture*Table1*Frame3*Frame1*Frame3(Resolution)*Table1*DropDownList3(Select Resolution)")
(cx-gui-do cx-activate-item "Save Picture*PanelButtons*PushButton1(OK)")
(cx-gui-do cx-set-file-dialog-entries "Select File" '( "C:/Users/cvest/Claudio/Oxford/3rd Year/B3/CubeSat_project/Claudio/Aerothermal/CFD/2d Sim/No Refinement/With new many axes/refine_pressure_gradient_180000.png") "Hardcopy Files (*.png)")
(cx-gui-do cx-activate-item "Save Picture*PanelButtons*PushButton2(Cancel)")
(cx-gui-do cx-activate-item "Mesh Display*PanelButtons*PushButton1(OK)")
(cx-gui-do cx-activate-item "ToolBar*Copy*savepicture")
(cx-gui-do cx-activate-item "Save Picture*PanelButtons*PushButton1(OK)")
(cx-gui-do cx-set-file-dialog-entries "Select File" '( "refined_mesh_pressure_gradient_180000.png") "Hardcopy Files (*.png)")
(cx-gui-do cx-activate-item "Save Picture*PanelButtons*PushButton2(Cancel)")
(cx-gui-do cx-activate-item "Mesh Display*PanelButtons*PushButton2(Cancel)")
(cx-gui-do cx-set-list-tree-selections "NavigationPane*Frame2*Table1*List_Tree2" (list "Solution|Initialization"))
(cx-gui-do cx-set-list-tree-selections "NavigationPane*Frame2*Table1*List_Tree2" (list "Solution|Initialization"))
(cx-gui-do cx-activate-item "NavigationPane*Frame2*Table1*List_Tree2")
(cx-gui-do cx-set-list-tree-selections "NavigationPane*Frame2*Table1*List_Tree2" (list "Solution|Initialization"))
(cx-gui-do cx-activate-item "Solution Initialization*Table1*Frame9*PushButton1(Initialize)")
(cx-gui-do cx-set-list-tree-selections "NavigationPane*Frame2*Table1*List_Tree2" (list "Solution|Run Calculation"))
(cx-gui-do cx-set-list-tree-selections "NavigationPane*Frame2*Table1*List_Tree2" (list "Solution|Run Calculation"))
(cx-gui-do cx-activate-item "NavigationPane*Frame2*Table1*List_Tree2")
(cx-gui-do cx-set-list-tree-selections "NavigationPane*Frame2*Table1*List_Tree2" (list "Solution|Run Calculation"))
(cx-gui-do cx-activate-item "Run Calculation*Table1*Table6(Solution Advancement)*Table1*PushButton1(Calculate)")


  iter  continuity  x-velocity  y-velocity      energy           k       omega     time/iter
     1  1.4434e-01  1.4720e-01  4.6735e-07  8.6426e-01  1.0000e+01  4.3405e-01  0:16:39  999

 time step reduced in 8 cells due to excessive temperature change
 time step reduced in 20 cells due to excessive pressure change
     2  1.0381e-01  3.4584e-01  1.0955e-02  2.1139e-01  1.7544e-02  1.4273e-01  0:13:18  998

 time step reduced in 4 cells due to excessive temperature change
 time step reduced in 16 cells due to excessive pressure change
     3  1.1120e-01  2.8522e-01  1.1588e-02  1.4020e-01  5.6252e-03  8.6059e-02  0:10:38  997

 time step reduced in 2 cells due to excessive temperature change
 time step reduced in 2 cells due to excessive pressure change
     4  8.9137e-02  2.2580e-01  1.0311e-02  9.8023e-02  3.2153e-03  6.5901e-02  0:11:49  996

 time step reduced in 8 cells due to excessive temperature change
     5  7.9352e-02  2.0520e-01  8.9151e-03  7.6547e-02  3.1074e-03  4.7085e-02  0:09:27  995
 time step reduced in 192 cells due to excessive pressure change
     6  4.7047e-02  1.4261e-01  7.1027e-03  6.3659e-02  2.9255e-03  3.4817e-02  0:07:33  994
 time step reduced in 555 cells due to excessive pressure change
     7  4.4109e-02  1.0069e-01  5.0439e-03  5.1618e-02  2.5859e-03  2.8762e-02  0:06:02  993

 time step reduced in 2 cells due to excessive temperature change
 time step reduced in 582 cells due to excessive pressure change
     8  3.7131e-02  7.5409e-02  4.7869e-03  4.8017e-02  3.0166e-03  2.4005e-02  0:04:49  992

 time step reduced in 4 cells due to excessive temperature change
 time step reduced in 580 cells due to excessive pressure change
     9  2.9595e-02  5.4293e-02  4.0586e-03  3.9958e-02  5.2350e-03  2.5295e-02  0:03:51  991

 time step reduced in 6 cells due to excessive temperature change
 time step reduced in 730 cells due to excessive pressure change
    10  2.6474e-02  6.4129e-02  3.8572e-03  3.6340e-02  6.9307e-03  2.4351e-02  0:06:23  990
Temperature solution-limit 2.000000e+04 triggered divergence prevention in 20 cells during the last 11 iterations

 time step reduced in 2 cells due to excessive temperature change
 time step reduced in 762 cells due to excessive pressure change
    11  2.4394e-02  5.2835e-02  3.7999e-03  3.2536e-02  6.4431e-03  2.1332e-02  0:05:06  989

 time step reduced in 2 cells due to excessive temperature change
 time step reduced in 762 cells due to excessive pressure change

  iter  continuity  x-velocity  y-velocity      energy           k       omega     time/iter
    12  2.3000e-02  4.8911e-02  3.8653e-03  2.9398e-02  4.6867e-03  1.9469e-02  0:04:04  988

 time step reduced in 2 cells due to excessive temperature change
 time step reduced in 929 cells due to excessive pressure change
    13  2.1710e-02  4.6511e-02  3.6395e-03  2.6702e-02  2.8863e-03  1.9796e-02  0:03:15  987

 time step reduced in 4 cells due to excessive temperature change
 time step reduced in 805 cells due to excessive pressure change
    14  2.0659e-02  4.3054e-02  3.5733e-03  2.4740e-02  2.2620e-03  2.0890e-02  0:02:36  986
 time step reduced in 895 cells due to excessive pressure change
    15  1.9772e-02  3.7064e-02  3.4348e-03  2.2944e-02  2.5250e-03  2.2555e-02  0:05:22  985

 time step reduced in 2 cells due to excessive temperature change
 time step reduced in 748 cells due to excessive pressure change
    16  1.8977e-02  3.6353e-02  3.3916e-03  2.1356e-02  2.2338e-03  2.1493e-02  0:04:17  984
 time step reduced in 855 cells due to excessive pressure change
    17  1.8262e-02  3.4694e-02  3.2933e-03  2.0164e-02  2.0193e-03  2.0928e-02  0:03:26  983
 time step reduced in 925 cells due to excessive pressure change
    18  1.7664e-02  3.4827e-02  3.1456e-03  1.9284e-02  1.9410e-03  1.9299e-02  0:02:44  982

 time step reduced in 4 cells due to excessive temperature change
 time step reduced in 922 cells due to excessive pressure change
    19  1.7130e-02  3.3059e-02  3.0420e-03  1.8595e-02  2.0116e-03  1.6930e-02  0:02:11  981

 time step reduced in 4 cells due to excessive temperature change
 time step reduced in 924 cells due to excessive pressure change
    20  1.6666e-02  3.0897e-02  2.9469e-03  1.8074e-02  2.2873e-03  1.4849e-02  0:01:45  980

 time step reduced in 5 cells due to excessive temperature change
 time step reduced in 728 cells due to excessive pressure change
    21  1.6159e-02  3.0134e-02  2.9163e-03  1.7665e-02  2.8809e-03  1.2134e-02  0:04:40  979
Temperature solution-limit 2.000000e+04 triggered divergence prevention in 33 cells during the last 11 iterations

 time step reduced in 10 cells due to excessive temperature change
 time step reduced in 730 cells due to excessive pressure change
    22  1.5718e-02  3.1367e-02  2.9222e-03  1.7386e-02  3.4266e-03  9.7513e-03  0:03:43  978

 time step reduced in 8 cells due to excessive temperature change
 time step reduced in 409 cells due to excessive pressure change

  iter  continuity  x-velocity  y-velocity      energy           k       omega     time/iter
    23  1.5216e-02  3.0459e-02  2.8975e-03  1.7075e-02  3.9909e-03  7.6770e-03  0:02:59  977

 time step reduced in 11 cells due to excessive temperature change
 time step reduced in 213 cells due to excessive pressure change
    24  1.4835e-02  2.9831e-02  2.8852e-03  1.6828e-02  4.5339e-03  5.9330e-03  0:02:23  976

 time step reduced in 27 cells due to excessive temperature change
 time step reduced in 168 cells due to excessive pressure change
    25  1.4530e-02  2.9958e-02  2.8790e-03  1.6626e-02  5.0365e-03  4.6580e-03  0:01:54  975

 time step reduced in 24 cells due to excessive temperature change
 time step reduced in 84 cells due to excessive pressure change
    26  1.4256e-02  2.8973e-02  2.7651e-03  1.6391e-02  5.5172e-03  3.6527e-03  0:01:31  974

 time step reduced in 33 cells due to excessive temperature change
 time step reduced in 53 cells due to excessive pressure change
    27  1.4034e-02  2.7136e-02  2.5623e-03  1.6166e-02  5.8676e-03  2.8737e-03  0:04:27  973

 time step reduced in 55 cells due to excessive temperature change
 time step reduced in 12 cells due to excessive pressure change
    28  1.3867e-02  2.5264e-02  2.4108e-03  1.5998e-02  5.9668e-03  2.2825e-03  0:03:34  972

 time step reduced in 67 cells due to excessive temperature change
    29  1.2227e-02  2.3678e-02  2.2648e-03  1.5897e-02  5.6279e-03  1.8288e-03  0:02:51  971

 time step reduced in 45 cells due to excessive temperature change
    30  1.0053e-02  2.2302e-02  2.1614e-03  1.5817e-02  4.8205e-03  1.4540e-03  0:02:17  970

 time step reduced in 44 cells due to excessive temperature change
    31  9.0930e-03  2.1137e-02  2.0801e-03  1.5756e-02  4.1816e-03  1.0355e-03  0:01:49  969

 time step reduced in 38 cells due to excessive temperature change
    32  8.7976e-03  2.0195e-02  2.0206e-03  1.5725e-02  3.6543e-03  8.7914e-04  0:01:27  968
Temperature solution-limit 1.000000e+00 triggered divergence prevention in 18 cells during the last 11 iterations
Temperature solution-limit 2.000000e+04 triggered divergence prevention in 34 cells during the last 11 iterations

 time step reduced in 40 cells due to excessive temperature change
    33  8.8683e-03  2.2041e-02  2.2435e-03  1.5737e-02  3.1966e-03  8.3608e-04  0:04:23  967

 time step reduced in 24 cells due to excessive temperature change

  iter  continuity  x-velocity  y-velocity      energy           k       omega     time/iter
    34  8.8892e-03  2.1076e-02  2.1946e-03  1.5722e-02  2.8285e-03  9.0065e-04  0:03:30  966

 time step reduced in 25 cells due to excessive temperature change
    35  7.1591e-03  2.2871e-02  2.4362e-03  1.5730e-02  2.5166e-03  1.1676e-03  0:02:48  965

 time step reduced in 18 cells due to excessive temperature change
    36  5.7254e-03  2.4782e-02  2.7088e-03  1.5739e-02  2.2511e-03  1.2159e-03  0:02:14  964

 time step reduced in 18 cells due to excessive temperature change
    37  4.8628e-03  2.3411e-02  2.6094e-03  1.5732e-02  2.0287e-03  1.1882e-03  0:01:47  963

 time step reduced in 20 cells due to excessive temperature change
    38  3.9580e-03  2.1663e-02  2.4654e-03  1.5711e-02  1.8451e-03  1.2043e-03  0:04:38  962

 time step reduced in 9 cells due to excessive temperature change
    39  3.1648e-03  2.0324e-02  2.3730e-03  1.5707e-02  1.6956e-03  1.2550e-03  0:03:42  961

 time step reduced in 8 cells due to excessive temperature change
    40  2.6326e-03  2.1824e-02  2.6108e-03  1.5704e-02  1.5634e-03  1.2281e-03  0:02:58  960

 time step reduced in 5 cells due to excessive temperature change
    41  2.8965e-03  1.9886e-02  2.4405e-03  1.5718e-02  1.4546e-03  1.1655e-03  0:02:22  959

 time step reduced in 7 cells due to excessive temperature change
    42  3.3803e-03  1.8213e-02  2.2875e-03  1.5718e-02  1.3263e-03  1.0894e-03  0:01:53  958

 time step reduced in 2 cells due to excessive temperature change
    43  5.2609e-03  1.6959e-02  2.1858e-03  1.5732e-02  1.2207e-03  1.0001e-03  0:01:31  957
Temperature solution-limit 1.000000e+00 triggered divergence prevention in 44 cells during the last 11 iterations
Temperature solution-limit 2.000000e+04 triggered divergence prevention in 67 cells during the last 11 iterations

 time step reduced in 5 cells due to excessive temperature change
    44  7.4192e-03  1.8367e-02  2.4310e-03  1.5758e-02  1.1582e-03  9.1065e-04  0:04:24  956

 time step reduced in 2 cells due to excessive temperature change

  iter  continuity  x-velocity  y-velocity      energy           k       omega     time/iter
    45  9.2115e-03  1.6857e-02  2.2913e-03  1.5775e-02  1.0767e-03  8.2664e-04  0:03:31  955

 time step reduced in 1 cells due to excessive temperature change
    46  1.0616e-02  1.8362e-02  2.5239e-03  1.5777e-02  1.0158e-03  7.5282e-04  0:02:48  954

 time step reduced in 4 cells due to excessive temperature change
    47  1.0548e-02  1.9672e-02  2.7688e-03  1.5779e-02  9.8556e-04  6.9064e-04  0:02:15  953

 time step reduced in 4 cells due to excessive temperature change
    48  1.0880e-02  1.6697e-02  2.3872e-03  1.5820e-02  9.7538e-04  6.3904e-04  0:01:48  952

 time step reduced in 3 cells due to excessive temperature change
    49  1.1491e-02  1.5810e-02  2.2917e-03  1.5828e-02  9.8940e-04  5.9448e-04  0:01:26  951

 time step reduced in 3 cells due to excessive temperature change
    50  1.2371e-02  1.7176e-02  2.5316e-03  1.5823e-02  9.7697e-04  5.5426e-04  0:04:19  950

 time step reduced in 5 cells due to excessive temperature change
    51  1.3307e-02  1.8869e-02  2.7950e-03  1.5830e-02  9.4246e-04  5.2783e-04  0:03:27  949

 time step reduced in 3 cells due to excessive temperature change
    52  1.4166e-02  1.7742e-02  2.6576e-03  1.5845e-02  8.9868e-04  5.6802e-04  0:02:45  948

 time step reduced in 2 cells due to excessive temperature change
    53  1.4572e-02  1.6878e-02  2.6028e-03  1.4094e-02  8.7601e-04  6.7524e-04  0:02:12  947
    54  1.4068e-02  1.8397e-02  2.9034e-03  1.3186e-02  9.7735e-04  8.2668e-04  0:01:46  946
Temperature solution-limit 1.000000e+00 triggered divergence prevention in 28 cells during the last 11 iterations
Temperature solution-limit 2.000000e+04 triggered divergence prevention in 138 cells during the last 11 iterations
    55  1.1961e-02  2.1268e-02  3.4170e-03  1.2569e-02  1.1137e-03  8.4621e-04  0:01:24  945

  iter  continuity  x-velocity  y-velocity      energy           k       omega     time/iter
    56  1.1691e-02  2.4777e-02  4.0848e-03  1.2252e-02  1.2212e-03  8.8204e-04  0:04:16  944
    57  1.2315e-02  2.7646e-02  4.6205e-03  1.1895e-02  1.2748e-03  9.3417e-04  0:03:25  943
    58  1.3310e-02  2.7382e-02  4.6020e-03  1.1713e-02  1.2969e-03  9.0741e-04  0:02:44  942
    59  1.4332e-02  2.7027e-02  4.5358e-03  1.1624e-02  1.3007e-03  9.4182e-04  0:02:11  941
    60  1.3970e-02  2.6506e-02  4.4571e-03  1.1546e-02  1.2975e-03  9.7003e-04  0:04:52  940
    61  1.2037e-02  2.6829e-02  4.3866e-03  1.1506e-02  1.2871e-03  1.0372e-03  0:03:54  939
    62  1.0500e-02  2.6378e-02  4.3256e-03  1.1459e-02  1.2752e-03  1.0121e-03  0:03:07  938
    63  9.3053e-03  2.5659e-02  4.2501e-03  1.1423e-02  1.2614e-03  1.0075e-03  0:02:29  937

 time step reduced in 1 cells due to excessive temperature change
    64  8.4209e-03  2.5511e-02  4.1517e-03  1.1414e-02  1.2513e-03  9.6618e-04  0:01:59  936

 time step reduced in 1 cells due to excessive temperature change
    65  7.9392e-03  2.4897e-02  4.0732e-03  1.1403e-02  1.2401e-03  9.3961e-04  0:01:35  935
Temperature solution-limit 1.000000e+00 triggered divergence prevention in 19 cells during the last 11 iterations
Temperature solution-limit 2.000000e+04 triggered divergence prevention in 129 cells during the last 11 iterations

 time step reduced in 1 cells due to excessive temperature change
    66  7.5888e-03  2.4364e-02  3.9955e-03  1.1406e-02  1.2238e-03  1.0162e-03  0:04:23  934

 time step reduced in 1 cells due to excessive temperature change

  iter  continuity  x-velocity  y-velocity      energy           k       omega     time/iter
    67  7.4181e-03  2.3672e-02  3.9495e-03  1.1410e-02  1.2084e-03  1.1308e-03  0:03:30  933

 time step reduced in 1 cells due to excessive temperature change
    68  7.3242e-03  2.4021e-02  3.9208e-03  1.1441e-02  1.1946e-03  1.0040e-03  0:02:48  932

 time step reduced in 1 cells due to excessive temperature change
    69  7.2513e-03  2.3714e-02  3.8530e-03  1.1439e-02  1.1832e-03  8.7832e-04  0:02:14  931

 time step reduced in 2 cells due to excessive temperature change
    70  7.2237e-03  2.3207e-02  3.7821e-03  1.1416e-02  1.1729e-03  7.7940e-04  0:01:47  930
    71  7.2986e-03  2.2671e-02  3.7150e-03  1.1378e-02  1.1640e-03  6.8017e-04  0:04:32  929
    72  7.4476e-03  2.2907e-02  3.6479e-03  1.1369e-02  1.1544e-03  5.8093e-04  0:03:37  928
    73  7.5759e-03  2.1715e-02  3.5584e-03  1.1310e-02  1.1452e-03  4.7981e-04  0:02:53  927
    74  7.7414e-03  2.1298e-02  3.4871e-03  1.1293e-02  1.1353e-03  4.0054e-04  0:02:19  926
    75  7.9022e-03  2.0997e-02  3.4310e-03  1.1295e-02  1.1261e-03  3.4926e-04  0:01:51  925
    76  8.0434e-03  2.0666e-02  3.3859e-03  1.1300e-02  1.1207e-03  3.0466e-04  0:01:28  924
Temperature solution-limit 1.000000e+00 triggered divergence prevention in 11 cells during the last 11 iterations
Temperature solution-limit 2.000000e+04 triggered divergence prevention in 129 cells during the last 11 iterations
    77  8.1656e-03  1.9818e-02  3.3505e-03  1.1289e-02  1.1170e-03  2.7725e-04  0:04:15  923

  iter  continuity  x-velocity  y-velocity      energy           k       omega     time/iter
    78  8.3352e-03  2.0391e-02  3.3447e-03  1.1319e-02  1.1138e-03  2.6367e-04  0:03:24  922
    79  8.4606e-03  2.0354e-02  3.3182e-03  1.1305e-02  1.1109e-03  2.5655e-04  0:02:43  921
    80  8.5752e-03  1.9934e-02  3.2729e-03  1.1269e-02  1.1051e-03  2.5201e-04  0:02:10  920
    81  8.7008e-03  1.9624e-02  3.2546e-03  1.1243e-02  1.0983e-03  2.4900e-04  0:01:44  919
    82  8.8188e-03  1.9426e-02  3.3301e-03  1.1216e-02  1.0888e-03  2.4883e-04  0:01:23  918
    83  8.9373e-03  1.9223e-02  3.5424e-03  1.1196e-02  1.0617e-03  2.4775e-04  0:04:10  917
    84  9.0757e-03  1.8869e-02  3.5852e-03  1.1197e-02  1.0292e-03  2.4696e-04  0:03:20  916
    85  9.2167e-03  1.8894e-02  4.7510e-03  1.1206e-02  9.9823e-04  2.4640e-04  0:02:40  915
    86  9.3279e-03  1.8133e-02  4.7027e-03  1.1214e-02  1.1504e-03  2.4730e-04  0:02:08  914
    87  9.3965e-03  1.7944e-02  3.9358e-03  1.1295e-02  7.7908e-04  2.4505e-04  0:01:42  913
Temperature solution-limit 1.000000e+00 triggered divergence prevention in 8 cells during the last 11 iterations
Temperature solution-limit 2.000000e+04 triggered divergence prevention in 66 cells during the last 11 iterations
    88  9.4397e-03  1.8287e-02  3.8171e-03  1.1301e-02  4.6724e-04  2.4379e-04  0:04:24  912

 time step reduced in 1 cells due to excessive temperature change

  iter  continuity  x-velocity  y-velocity      energy           k       omega     time/iter
    89  9.6028e-03  1.8055e-02  4.1932e-03  1.1259e-02  4.0248e-04  2.4205e-04  0:03:31  911

 time step reduced in 1 cells due to excessive temperature change
    90  9.8341e-03  1.7928e-02  3.9677e-03  1.1221e-02  3.6973e-04  2.3744e-04  0:02:48  910

 time step reduced in 1 cells due to excessive temperature change
    91  1.0098e-02  1.7862e-02  4.5214e-03  1.1196e-02  3.5632e-04  2.3263e-04  0:02:15  909

 time step reduced in 1 cells due to excessive temperature change
    92  1.0332e-02  1.7082e-02  4.4177e-03  1.1151e-02  3.7344e-04  2.2657e-04  0:01:48  908

 time step reduced in 1 cells due to excessive temperature change
    93  1.0601e-02  1.6661e-02  3.9928e-03  1.1137e-02  4.1870e-04  2.2122e-04  0:01:26  907

 time step reduced in 1 cells due to excessive temperature change
    94  1.0638e-02  1.6409e-02  4.2000e-03  1.1138e-02  4.8643e-04  2.1637e-04  0:04:10  906

 time step reduced in 1 cells due to excessive temperature change
    95  1.0688e-02  1.6626e-02  4.2441e-03  1.1152e-02  5.6880e-04  2.1361e-04  0:03:20  905
    96  1.0744e-02  1.6938e-02  4.7763e-03  1.1168e-02  6.4834e-04  2.1122e-04  0:02:40  904
    97  1.0561e-02  1.6785e-02  4.8410e-03  1.1183e-02  6.9478e-04  2.0788e-04  0:02:08  903
    98  1.0191e-02  1.6850e-02  4.6437e-03  1.1180e-02  7.3872e-04  2.0334e-04  0:01:42  902
Temperature solution-limit 1.000000e+00 triggered divergence prevention in 4 cells during the last 11 iterations
Temperature solution-limit 2.000000e+04 triggered divergence prevention in 11 cells during the last 11 iterations
    99  9.8329e-03  1.6325e-02  4.7650e-03  1.1148e-02  7.7852e-04  1.9743e-04  0:01:21  901

  iter  continuity  x-velocity  y-velocity      energy           k       omega     time/iter
   100  9.5265e-03  1.6152e-02  4.8587e-03  1.1131e-02  8.2188e-04  1.9551e-04  0:04:05  900
   101  9.2537e-03  1.5906e-02  4.8464e-03  1.1126e-02  8.6903e-04  1.9973e-04  0:03:16  899
   102  8.9888e-03  1.6016e-02  5.5712e-03  1.1119e-02  9.2423e-04  2.1567e-04  0:02:37  898
   103  8.7236e-03  1.5544e-02  5.4628e-03  1.1105e-02  9.8199e-04  2.4252e-04  0:02:05  897

 time step reduced in 2 cells due to excessive temperature change
   104  8.4850e-03  1.5327e-02  5.5395e-03  1.1102e-02  1.0406e-03  2.7907e-04  0:01:40  896

 time step reduced in 1 cells due to excessive temperature change
   105  8.2743e-03  1.5283e-02  5.4050e-03  1.1104e-02  1.1075e-03  3.1173e-04  0:01:20  895

 time step reduced in 2 cells due to excessive temperature change
   106  8.1074e-03  1.5813e-02  5.5566e-03  1.1128e-02  1.1722e-03  3.5125e-04  0:04:03  894

 time step reduced in 3 cells due to excessive temperature change
   107  7.9230e-03  1.5867e-02  5.3607e-03  1.1114e-02  1.2453e-03  3.8332e-04  0:03:14  893

 time step reduced in 3 cells due to excessive temperature change
   108  7.7200e-03  1.5183e-02  5.7675e-03  1.1056e-02  1.3158e-03  4.2031e-04  0:02:35  892

 time step reduced in 4 cells due to excessive temperature change
   109  7.5376e-03  1.5129e-02  5.8461e-03  1.0998e-02  1.3797e-03  4.5362e-04  0:02:04  891
Temperature solution-limit 1.000000e+00 triggered divergence prevention in 11 cells during the last 11 iterations
Temperature solution-limit 2.000000e+04 triggered divergence prevention in 11 cells during the last 11 iterations

 time step reduced in 3 cells due to excessive temperature change
   110  7.3629e-03  1.5225e-02  5.4548e-03  1.0916e-02  1.4327e-03  4.7481e-04  0:01:39  890

 time step reduced in 4 cells due to excessive temperature change

  iter  continuity  x-velocity  y-velocity      energy           k       omega     time/iter
   111  7.1990e-03  1.4974e-02  5.8307e-03  1.0778e-02  1.5502e-03  4.9018e-04  0:01:19  889

 time step reduced in 5 cells due to excessive temperature change
   112  7.0186e-03  1.3499e-02  6.2312e-03  9.8828e-03  1.6631e-03  5.1141e-04  0:04:01  888

 time step reduced in 4 cells due to excessive temperature change
   113  6.2292e-03  1.2245e-02  6.3277e-03  1.0020e-02  2.2830e-03  5.3713e-04  0:03:12  887

 time step reduced in 4 cells due to excessive temperature change
   114  5.4313e-03  1.1494e-02  6.6955e-03  1.0113e-02  2.8362e-03  5.3668e-04  0:02:34  886

 time step reduced in 7 cells due to excessive temperature change
   115  4.8402e-03  1.0586e-02  7.2555e-03  1.0138e-02  3.4400e-03  5.4853e-04  0:02:03  885

 time step reduced in 10 cells due to excessive temperature change
   116  4.4707e-03  1.0497e-02  6.8827e-03  1.0185e-02  4.0978e-03  5.3618e-04  0:01:38  884

 time step reduced in 8 cells due to excessive temperature change
   117  4.4984e-03  1.0479e-02  6.3812e-03  1.0252e-02  4.7413e-03  5.2760e-04  0:04:15  883

 time step reduced in 8 cells due to excessive temperature change
   118  4.6174e-03  1.1067e-02  6.4886e-03  1.0338e-02  5.2759e-03  5.0902e-04  0:03:24  882

 time step reduced in 9 cells due to excessive temperature change
   119  4.7651e-03  1.0042e-02  6.4918e-03  1.0126e-02  5.6740e-03  4.8476e-04  0:02:43  881

 time step reduced in 11 cells due to excessive temperature change
   120  4.7895e-03  9.9519e-03  6.2274e-03  1.0007e-02  6.2280e-03  4.6398e-04  0:02:10  880
Temperature solution-limit 1.000000e+00 triggered divergence prevention in 1 cells during the last 11 iterations

 time step reduced in 11 cells due to excessive temperature change
   121  4.8939e-03  1.1017e-02  6.2212e-03  9.8934e-03  4.9455e-03  4.3327e-04  0:01:44  879

 time step reduced in 8 cells due to excessive temperature change

  iter  continuity  x-velocity  y-velocity      energy           k       omega     time/iter
   122  5.1521e-03  1.1366e-02  7.1772e-03  9.7984e-03  3.9170e-03  4.2131e-04  0:04:19  878

 time step reduced in 8 cells due to excessive temperature change
   123  5.3784e-03  1.0714e-02  6.1719e-03  9.6815e-03  3.2742e-03  4.0569e-04  0:03:27  877

 time step reduced in 7 cells due to excessive temperature change
   124  5.6394e-03  1.2955e-02  7.6490e-03  9.6712e-03  2.9612e-03  4.0214e-04  0:02:45  876

 time step reduced in 8 cells due to excessive temperature change
   125  5.8480e-03  1.0578e-02  6.2772e-03  9.4902e-03  2.8207e-03  3.8317e-04  0:02:12  875

 time step reduced in 9 cells due to excessive temperature change
   126  6.1076e-03  1.0662e-02  6.4597e-03  9.4649e-03  2.8508e-03  3.8281e-04  0:04:40  874

 time step reduced in 7 cells due to excessive temperature change
   127  6.3800e-03  1.0667e-02  6.2302e-03  9.4609e-03  2.9322e-03  3.7167e-04  0:03:44  873

 time step reduced in 6 cells due to excessive temperature change
   128  6.6693e-03  1.0001e-02  6.3557e-03  9.4812e-03  3.0050e-03  3.8783e-04  0:02:59  872

 time step reduced in 4 cells due to excessive temperature change
   129  7.0059e-03  1.0044e-02  7.0261e-03  9.5462e-03  2.8868e-03  3.7248e-04  0:02:23  871

 time step reduced in 5 cells due to excessive temperature change
   130  7.3299e-03  1.0123e-02  7.0891e-03  9.5536e-03  2.8506e-03  3.7891e-04  0:04:48  870

 time step reduced in 6 cells due to excessive temperature change
   131  7.6765e-03  1.0161e-02  6.8758e-03  9.5850e-03  3.0344e-03  3.7944e-04  0:03:50  869

 time step reduced in 8 cells due to excessive temperature change
   132  8.0545e-03  1.0694e-02  7.4053e-03  9.6380e-03  3.0737e-03  3.9759e-04  0:03:04  868

 time step reduced in 5 cells due to excessive temperature change

  iter  continuity  x-velocity  y-velocity      energy           k       omega     time/iter
   133  8.4499e-03  1.0329e-02  7.7520e-03  9.6825e-03  2.8838e-03  4.0631e-04  0:02:27  867

 time step reduced in 5 cells due to excessive temperature change
   134  8.9240e-03  1.0615e-02  7.8146e-03  9.8063e-03  2.8723e-03  4.1528e-04  0:04:51  866

 time step reduced in 2 cells due to excessive temperature change
   135  9.4619e-03  1.2096e-02  8.0465e-03  9.9425e-03  2.8840e-03  4.2917e-04  0:03:52  865
   136  1.0040e-02  1.1509e-02  8.6361e-03  1.0026e-02  2.9873e-03  4.3856e-04  0:03:06  864

 time step reduced in 2 cells due to excessive temperature change
   137  1.0734e-02  1.1298e-02  9.0334e-03  1.0207e-02  3.0348e-03  4.3187e-04  0:02:28  863

 time step reduced in 1 cells due to excessive temperature change
   138  1.1487e-02  1.0393e-02  8.7244e-03  1.0390e-02  3.1709e-03  4.3812e-04  0:01:59  862

 time step reduced in 1 cells due to excessive temperature change
   139  1.2304e-02  1.1200e-02  8.5964e-03  1.0598e-02  3.3726e-03  4.1820e-04  0:04:27  861
   140  1.2924e-02  1.1873e-02  8.6947e-03  1.0645e-02  3.5557e-03  3.9000e-04  0:03:33  860

 time step reduced in 1 cells due to excessive temperature change
   141  1.2995e-02  1.2428e-02  8.4224e-03  1.0690e-02  3.6748e-03  3.7485e-04  0:02:50  859
   142  1.3136e-02  1.1669e-02  9.1819e-03  1.0796e-02  3.4079e-03  3.6638e-04  0:02:16  858
   143  1.3330e-02  1.2593e-02  8.7749e-03  1.0918e-02  3.3817e-03  3.5733e-04  0:04:40  857

  iter  continuity  x-velocity  y-velocity      energy           k       omega     time/iter
   144  1.3583e-02  1.3373e-02  8.4621e-03  1.0992e-02  3.2883e-03  3.5106e-04  0:03:44  856
   145  1.3794e-02  1.1247e-02  8.5446e-03  1.0930e-02  3.0983e-03  3.3497e-04  0:02:59  855
   146  1.4095e-02  1.0153e-02  9.3797e-03  1.0989e-02  2.8556e-03  3.1698e-04  0:02:23  854
   147  1.4417e-02  1.0127e-02  9.4919e-03  1.1017e-02  2.5804e-03  3.0968e-04  0:01:54  853
   148  1.4769e-02  1.2040e-02  9.3272e-03  1.1117e-02  2.3374e-03  2.9902e-04  0:01:31  852
   149  1.5067e-02  1.2787e-02  9.6464e-03  1.1197e-02  2.1775e-03  2.9200e-04  0:04:03  851
   150  1.5276e-02  1.1880e-02  9.7317e-03  1.1215e-02  2.0948e-03  2.8169e-04  0:03:14  850
   151  1.5497e-02  1.0705e-02  9.8275e-03  1.1208e-02  2.0551e-03  2.7195e-04  0:02:35  849
   152  1.5692e-02  1.1099e-02  9.9601e-03  1.1292e-02  2.0751e-03  2.7000e-04  0:02:04  848
   153  1.5797e-02  1.0933e-02  9.6901e-03  1.1390e-02  2.0719e-03  2.6400e-04  0:01:39  847
   154  1.5905e-02  1.1049e-02  9.9850e-03  1.1440e-02  2.1674e-03  2.5709e-04  0:04:08  846

  iter  continuity  x-velocity  y-velocity      energy           k       omega     time/iter
   155  1.5947e-02  1.1664e-02  1.0485e-02  1.1440e-02  2.1415e-03  2.4872e-04  0:03:18  845
   156  1.6034e-02  1.2068e-02  1.0015e-02  1.1506e-02  2.0365e-03  2.4446e-04  0:02:39  844
   157  1.6172e-02  1.5180e-02  1.0776e-02  1.1603e-02  1.8909e-03  2.4088e-04  0:02:07  843
   158  1.6078e-02  1.1753e-02  9.8358e-03  1.1483e-02  1.7933e-03  2.4011e-04  0:01:41  842
   159  1.6008e-02  1.1027e-02  1.0185e-02  1.1349e-02  1.7490e-03  2.4171e-04  0:04:09  841
   160  1.5881e-02  1.1528e-02  1.0174e-02  1.1419e-02  1.6891e-03  2.4614e-04  0:03:19  840
   161  1.5813e-02  1.2967e-02  1.0972e-02  1.1554e-02  1.5832e-03  2.3778e-04  0:02:39  839
   162  1.5769e-02  1.2453e-02  1.0802e-02  1.1603e-02  1.5045e-03  2.3178e-04  0:04:55  838
   163  1.5790e-02  1.2130e-02  1.0722e-02  1.1655e-02  1.4411e-03  2.2415e-04  0:03:55  837
   164  1.5816e-02  1.0953e-02  1.0501e-02  1.1645e-02  1.3399e-03  2.1649e-04  0:03:08  836
   165  1.5998e-02  1.1299e-02  1.0635e-02  1.1721e-02  1.2584e-03  2.1407e-04  0:02:30  835

  iter  continuity  x-velocity  y-velocity      energy           k       omega     time/iter
   166  1.6230e-02  1.1306e-02  1.0917e-02  1.1781e-02  1.2085e-03  2.1411e-04  0:02:00  834
   167  1.6402e-02  1.1177e-02  1.2069e-02  1.1829e-02  1.1818e-03  2.0863e-04  0:04:23  833
   168  1.6527e-02  1.1108e-02  1.1899e-02  1.1796e-02  1.1541e-03  2.0904e-04  0:03:30  832
   169  1.6455e-02  1.1096e-02  1.1394e-02  1.1729e-02  1.1315e-03  2.0354e-04  0:02:48  831
   170  1.6446e-02  1.2031e-02  1.1976e-02  1.1735e-02  1.1134e-03  1.9593e-04  0:02:14  830
   171  1.6451e-02  1.1515e-02  1.1761e-02  1.1757e-02  1.0789e-03  1.9335e-04  0:01:47  829
   172  1.6555e-02  1.1144e-02  1.1733e-02  1.1572e-02  1.0325e-03  1.9258e-04  0:04:11  828
   173  1.6713e-02  1.2496e-02  1.2161e-02  1.1568e-02  9.6255e-04  1.8733e-04  0:03:21  827
   174  1.6716e-02  1.0908e-02  1.1466e-02  1.1451e-02  9.2411e-04  1.8587e-04  0:02:40  826
   175  1.6445e-02  1.1177e-02  1.1597e-02  1.1469e-02  9.0699e-04  1.8995e-04  0:02:08  825
   176  1.6284e-02  1.3027e-02  1.2303e-02  1.1676e-02  9.0060e-04  1.8849e-04  0:01:42  824

  iter  continuity  x-velocity  y-velocity      energy           k       omega     time/iter
   177  1.6165e-02  1.2432e-02  1.2110e-02  1.1746e-02  9.0381e-04  1.8561e-04  0:04:06  823
   178  1.6117e-02  1.1350e-02  1.1469e-02  1.1737e-02  8.9306e-04  1.8945e-04  0:03:17  822
   179  1.6223e-02  1.0544e-02  1.1155e-02  1.1827e-02  8.7419e-04  1.8721e-04  0:02:37  821
   180  1.6355e-02  1.0879e-02  1.1328e-02  1.1947e-02  8.4820e-04  1.8235e-04  0:02:06  820
   181  1.6620e-02  1.1537e-02  1.1564e-02  1.2046e-02  8.2364e-04  1.8544e-04  0:01:40  819
   182  1.6423e-02  1.1305e-02  1.2028e-02  1.1841e-02  8.0752e-04  1.8621e-04  0:04:04  818
   183  1.6212e-02  1.0879e-02  1.1580e-02  1.1542e-02  7.8451e-04  1.8475e-04  0:03:15  817
   184  1.6215e-02  1.5033e-02  1.1902e-02  1.1567e-02  7.8969e-04  1.8873e-04  0:02:36  816
   185  1.6126e-02  1.0342e-02  1.1757e-02  1.1350e-02  8.2033e-04  1.8522e-04  0:02:04  815
   186  1.6225e-02  9.7277e-03  1.1599e-02  1.1390e-02  8.4773e-04  1.8604e-04  0:01:39  814
   187  1.6239e-02  1.0376e-02  1.1385e-02  1.1413e-02  8.5361e-04  1.8836e-04  0:04:02  813

  iter  continuity  x-velocity  y-velocity      energy           k       omega     time/iter
   188  1.6255e-02  1.0909e-02  1.1146e-02  1.1382e-02  8.4123e-04  1.8566e-04  0:03:13  812
   189  1.6263e-02  1.1540e-02  1.1297e-02  1.1388e-02  8.2187e-04  1.8666e-04  0:02:35  811
   190  1.6188e-02  1.2033e-02  1.1184e-02  1.1347e-02  8.0965e-04  1.9278e-04  0:02:03  810
   191  1.6194e-02  1.1277e-02  1.1359e-02  1.1348e-02  8.0544e-04  1.9110e-04  0:01:39  809
   192  1.6430e-02  1.0465e-02  1.1634e-02  1.1588e-02  8.0829e-04  1.8977e-04  0:04:00  808
   193  1.6595e-02  1.0266e-02  1.1234e-02  1.1880e-02  8.2458e-04  1.9018e-04  0:03:12  807
   194  1.6613e-02  1.0742e-02  1.1444e-02  1.1871e-02  8.4346e-04  1.9055e-04  0:02:33  806
   195  1.6529e-02  1.0715e-02  1.2081e-02  1.1911e-02  8.5251e-04  1.9285e-04  0:02:03  805
   196  1.6454e-02  1.0525e-02  1.2666e-02  1.1957e-02  8.6047e-04  1.8503e-04  0:01:38  804
   197  1.6468e-02  1.0826e-02  1.2659e-02  1.2070e-02  8.5767e-04  1.8178e-04  0:01:18  803
   198  1.6483e-02  1.1604e-02  1.2228e-02  1.2150e-02  8.3556e-04  1.8318e-04  0:03:43  802

  iter  continuity  x-velocity  y-velocity      energy           k       omega     time/iter
   199  1.6566e-02  1.1168e-02  1.1971e-02  1.2167e-02  8.2084e-04  1.7780e-04  0:02:58  801
   200  1.6619e-02  1.1199e-02  1.2141e-02  1.2255e-02  8.1995e-04  1.7720e-04  0:02:22  800
   201  1.6700e-02  1.1153e-02  1.2084e-02  1.2320e-02  8.2609e-04  1.8082e-04  0:01:54  799
   202  1.6782e-02  1.1183e-02  1.1837e-02  1.2350e-02  8.3749e-04  1.7992e-04  0:01:31  798
   203  1.6850e-02  1.1440e-02  1.1896e-02  1.2428e-02  8.0851e-04  1.7934e-04  0:03:52  797
   204  1.6988e-02  1.1343e-02  1.2147e-02  1.2601e-02  7.8224e-04  1.8526e-04  0:03:05  796
   205  1.7076e-02  1.0788e-02  1.2320e-02  1.2621e-02  7.6695e-04  1.8709e-04  0:02:28  795
   206  1.7184e-02  1.0941e-02  1.2119e-02  1.2660e-02  7.6234e-04  1.8232e-04  0:01:58  794
   207  1.7082e-02  1.2528e-02  1.2045e-02  1.2756e-02  7.6521e-04  1.8291e-04  0:01:35  793
   208  1.6870e-02  1.1375e-02  1.2014e-02  1.2783e-02  7.6836e-04  1.8331e-04  0:01:16  792
   209  1.6654e-02  1.0486e-02  1.2072e-02  1.2870e-02  7.7093e-04  1.7732e-04  0:03:39  791

  iter  continuity  x-velocity  y-velocity      energy           k       omega     time/iter
   210  1.6510e-02  1.0829e-02  1.2364e-02  1.2921e-02  7.5158e-04  1.7671e-04  0:02:55  790
   211  1.6370e-02  1.0878e-02  1.2690e-02  1.2886e-02  7.3296e-04  1.7846e-04  0:02:20  789
   212  1.6268e-02  1.1794e-02  1.3164e-02  1.2792e-02  7.2087e-04  1.6883e-04  0:01:51  788
   213  1.6185e-02  1.0767e-02  1.3359e-02  1.2727e-02  7.2147e-04  1.7259e-04  0:01:29  787
   214  1.6128e-02  1.0495e-02  1.2723e-02  1.2650e-02  7.3617e-04  1.6357e-04  0:03:48  786
   215  1.6099e-02  1.0554e-02  1.2940e-02  1.2652e-02  7.5550e-04  1.6049e-04  0:03:02  785
   216  1.6142e-02  9.6092e-03  1.3053e-02  1.2739e-02  7.4393e-04  1.5022e-04  0:02:26  784
   217  1.6196e-02  1.0074e-02  1.3187e-02  1.2885e-02  7.4086e-04  1.4402e-04  0:01:56  783
   218  1.6339e-02  1.0628e-02  1.3031e-02  1.2958e-02  7.2477e-04  1.3455e-04  0:01:33  782
   219  1.6527e-02  1.0459e-02  1.2654e-02  1.2973e-02  6.7565e-04  1.2729e-04  0:03:51  781
   220  1.6752e-02  1.0931e-02  1.2420e-02  1.2921e-02  6.5208e-04  1.2214e-04  0:03:04  780

  iter  continuity  x-velocity  y-velocity      energy           k       omega     time/iter
   221  1.7052e-02  1.1346e-02  1.2350e-02  1.2917e-02  6.2451e-04  1.1612e-04  0:02:27  779
   222  1.7338e-02  1.0521e-02  1.2194e-02  1.2943e-02  6.0013e-04  1.1053e-04  0:01:58  778
   223  1.7624e-02  1.0490e-02  1.2194e-02  1.2968e-02  5.8033e-04  1.0839e-04  0:01:34  777
   224  1.7847e-02  1.1310e-02  1.2486e-02  1.2993e-02  5.6820e-04  1.0426e-04  0:01:15  776
   225  1.7821e-02  1.1296e-02  1.2688e-02  1.3102e-02  5.6684e-04  1.0083e-04  0:03:35  775
   226  1.7753e-02  1.1046e-02  1.2861e-02  1.3088e-02  5.6153e-04  9.7132e-05  0:02:52  774
   227  1.7709e-02  1.1422e-02  1.3123e-02  1.3052e-02  5.5350e-04  9.1507e-05  0:02:17  773
   228  1.7764e-02  1.1892e-02  1.3278e-02  1.3025e-02  5.4094e-04  8.7466e-05  0:01:50  772
   229  1.7933e-02  1.2118e-02  1.3187e-02  1.2984e-02  5.1900e-04  8.3865e-05  0:01:28  771
   230  1.8092e-02  1.2033e-02  1.3275e-02  1.2963e-02  4.9963e-04  8.1404e-05  0:03:44  770
   231  1.8290e-02  1.1027e-02  1.3080e-02  1.3005e-02  4.8089e-04  7.7543e-05  0:02:59  769

  iter  continuity  x-velocity  y-velocity      energy           k       omega     time/iter
   232  1.8299e-02  1.1242e-02  1.2904e-02  1.3126e-02  4.6613e-04  7.4807e-05  0:02:23  768
   233  1.8459e-02  1.2419e-02  1.3442e-02  1.3392e-02  4.6010e-04  7.2632e-05  0:01:54  767
   234  1.8503e-02  1.1685e-02  1.3428e-02  1.3551e-02  4.5429e-04  6.9282e-05  0:01:31  766
   235  1.8507e-02  1.2429e-02  1.3463e-02  1.3632e-02  4.4974e-04  6.6781e-05  0:03:46  765
   236  1.8317e-02  1.3847e-02  1.3505e-02  1.3520e-02  4.5170e-04  6.6061e-05  0:03:00  764
   237  1.8130e-02  1.2157e-02  1.3174e-02  1.3354e-02  4.7219e-04  6.5314e-05  0:02:24  763
   238  1.8123e-02  1.2194e-02  1.3333e-02  1.3361e-02  5.1283e-04  6.3677e-05  0:01:55  762
   239  1.8157e-02  1.2009e-02  1.3455e-02  1.3394e-02  5.5468e-04  6.1783e-05  0:01:32  761
   240  1.8210e-02  1.1310e-02  1.3519e-02  1.3416e-02  5.1415e-04  5.9632e-05  0:03:46  760
   241  1.8127e-02  1.0499e-02  1.3404e-02  1.3320e-02  4.8415e-04  5.7430e-05  0:03:00  759
   242  1.8140e-02  1.0860e-02  1.3373e-02  1.3328e-02  4.7024e-04  5.5789e-05  0:02:24  758

  iter  continuity  x-velocity  y-velocity      energy           k       omega     time/iter
   243  1.8294e-02  1.1319e-02  1.3461e-02  1.3401e-02  4.6553e-04  5.3461e-05  0:01:55  757
   244  1.8306e-02  1.1283e-02  1.3526e-02  1.3444e-02  4.6843e-04  5.0839e-05  0:01:32  756
   245  1.8266e-02  1.2438e-02  1.3714e-02  1.3503e-02  4.7934e-04  4.9345e-05  0:03:44  755
   246  1.8274e-02  1.1472e-02  1.3619e-02  1.3561e-02  4.9643e-04  4.7234e-05  0:02:59  754
   247  1.8289e-02  1.1405e-02  1.3540e-02  1.3472e-02  4.6945e-04  4.6579e-05  0:02:23  753
   248  1.8331e-02  1.1759e-02  1.3446e-02  1.3436e-02  4.6129e-04  4.5218e-05  0:01:54  752
   249  1.8395e-02  1.2089e-02  1.3353e-02  1.3419e-02  4.7539e-04  4.5707e-05  0:04:02  751
   250  1.8473e-02  1.2187e-02  1.3677e-02  1.3412e-02  5.0541e-04  4.4650e-05  0:03:13  750
   251  1.8643e-02  1.2275e-02  1.3831e-02  1.3481e-02  5.4676e-04  4.3809e-05  0:02:34  749
   252  1.8727e-02  1.2246e-02  1.3716e-02  1.3593e-02  5.6943e-04  4.4047e-05  0:02:03  748
   253  1.8720e-02  1.2325e-02  1.3681e-02  1.3573e-02  5.6444e-04  4.3906e-05  0:01:38  747

  iter  continuity  x-velocity  y-velocity      energy           k       omega     time/iter
   254  1.8825e-02  1.2386e-02  1.3691e-02  1.3559e-02  5.5853e-04  4.3842e-05  0:03:48  746
   255  1.8819e-02  1.2398e-02  1.3654e-02  1.3586e-02  5.6567e-04  4.3689e-05  0:03:02  745
   256  1.8901e-02  1.2685e-02  1.3636e-02  1.3699e-02  5.7742e-04  4.4714e-05  0:02:25  744
   257  1.8949e-02  1.2671e-02  1.3481e-02  1.3781e-02  5.9453e-04  4.5342e-05  0:01:56  743
   258  1.9010e-02  1.3028e-02  1.3408e-02  1.3879e-02  6.2572e-04  4.6157e-05  0:04:01  742
   259  1.9159e-02  1.4761e-02  1.3430e-02  1.4037e-02  6.5900e-04  4.7500e-05  0:03:13  741
   260  1.9288e-02  1.5020e-02  1.3357e-02  1.4157e-02  6.8573e-04  4.8747e-05  0:02:34  740
   261  1.9225e-02  1.4544e-02  1.3229e-02  1.4129e-02  7.0733e-04  4.9202e-05  0:02:03  739
   262  1.9153e-02  1.3545e-02  1.3067e-02  1.4070e-02  7.2263e-04  4.9906e-05  0:04:06  738
   263  1.9012e-02  1.3648e-02  1.3140e-02  1.3993e-02  7.2981e-04  5.0598e-05  0:03:16  737
   264  1.8894e-02  1.3988e-02  1.3648e-02  1.3900e-02  7.0837e-04  5.1403e-05  0:02:37  736

  iter  continuity  x-velocity  y-velocity      energy           k       omega     time/iter
   265  1.8791e-02  1.3785e-02  1.3616e-02  1.3641e-02  6.8210e-04  5.2939e-05  0:02:05  735
   266  1.8686e-02  1.3878e-02  1.3347e-02  1.3425e-02  6.6607e-04  5.4763e-05  0:01:40  734
   267  1.8572e-02  1.4194e-02  1.3437e-02  1.3266e-02  6.6233e-04  5.7238e-05  0:03:47  733
   268  1.8527e-02  1.4407e-02  1.3626e-02  1.3194e-02  6.6439e-04  6.0083e-05  0:03:01  732
   269  1.8637e-02  1.4399e-02  1.3708e-02  1.3314e-02  6.6775e-04  6.2585e-05  0:02:25  731
   270  1.8829e-02  1.4548e-02  1.3844e-02  1.3551e-02  6.6384e-04  6.4846e-05  0:01:56  730
   271  1.8823e-02  1.4547e-02  1.3543e-02  1.3735e-02  6.6908e-04  6.5990e-05  0:01:32  729
   272  1.8854e-02  1.4911e-02  1.3657e-02  1.3957e-02  6.7900e-04  6.7404e-05  0:03:39  728
   273  1.8959e-02  1.5048e-02  1.3799e-02  1.4116e-02  6.8647e-04  6.8991e-05  0:02:55  727
   274  1.9054e-02  1.4727e-02  1.3758e-02  1.4116e-02  7.0478e-04  6.9563e-05  0:02:20  726
   275  1.9054e-02  1.4486e-02  1.3500e-02  1.4030e-02  7.0799e-04  7.0631e-05  0:01:52  725

  iter  continuity  x-velocity  y-velocity      energy           k       omega     time/iter
   276  1.8984e-02  1.4396e-02  1.3240e-02  1.4005e-02  6.8774e-04  7.2708e-05  0:01:29  724
   277  1.8932e-02  1.4290e-02  1.3024e-02  1.3981e-02  6.9733e-04  7.3423e-05  0:03:36  723
   278  1.8939e-02  1.4423e-02  1.2932e-02  1.3958e-02  7.1085e-04  7.4327e-05  0:02:53  722
   279  1.9020e-02  1.4508e-02  1.3174e-02  1.3985e-02  7.0852e-04  7.5557e-05  0:02:18  721
   280  1.9041e-02  1.5002e-02  1.3432e-02  1.4043e-02  6.7429e-04  7.5396e-05  0:01:50  720
   281  1.8869e-02  1.5480e-02  1.3450e-02  1.4106e-02  6.4411e-04  7.5631e-05  0:01:28  719
   282  1.8716e-02  1.5470e-02  1.3406e-02  1.4207e-02  6.2555e-04  7.6053e-05  0:03:34  718
   283  1.8566e-02  1.5964e-02  1.3554e-02  1.4300e-02  6.0278e-04  7.5747e-05  0:02:51  717
   284  1.8512e-02  1.6010e-02  1.3730e-02  1.4307e-02  5.8497e-04  7.7192e-05  0:02:17  716
   285  1.8590e-02  1.5780e-02  1.3948e-02  1.4348e-02  5.6872e-04  7.7759e-05  0:01:49  715
   286  1.8760e-02  1.5850e-02  1.4076e-02  1.4450e-02  5.5653e-04  7.7554e-05  0:01:27  714

  iter  continuity  x-velocity  y-velocity      energy           k       omega     time/iter
   287  1.9050e-02  1.6520e-02  1.3988e-02  1.4645e-02  5.5400e-04  7.6576e-05  0:01:10  713
   288  1.9347e-02  1.6427e-02  1.3898e-02  1.4803e-02  5.5379e-04  7.5724e-05  0:03:18  712
   289  1.9623e-02  1.6468e-02  1.3857e-02  1.4882e-02  5.4669e-04  7.4343e-05  0:02:38  711
   290  1.9842e-02  1.6714e-02  1.3898e-02  1.4789e-02  5.5028e-04  7.2701e-05  0:02:06  710
   291  2.0055e-02  1.7116e-02  1.4170e-02  1.4700e-02  5.5348e-04  7.1888e-05  0:01:41  709
   292  2.0102e-02  1.7326e-02  1.4211e-02  1.4613e-02  5.4282e-04  7.1868e-05  0:01:21  708
   293  2.0151e-02  1.7746e-02  1.4408e-02  1.4627e-02  5.3429e-04  7.0254e-05  0:03:26  707
   294  2.0287e-02  1.8052e-02  1.4395e-02  1.4719e-02  5.2416e-04  6.7941e-05  0:02:44  706
   295  2.0494e-02  1.8117e-02  1.4276e-02  1.4853e-02  5.2800e-04  6.7304e-05  0:02:11  705
   296  2.0701e-02  1.8082e-02  1.4330e-02  1.4935e-02  5.1686e-04  6.5857e-05  0:01:45  704
   297  2.0536e-02  1.8118e-02  1.4335e-02  1.4987e-02  5.0333e-04  6.4775e-05  0:01:24  703

  iter  continuity  x-velocity  y-velocity      energy           k       omega     time/iter
   298  2.0345e-02  1.8315e-02  1.4313e-02  1.4972e-02  4.9055e-04  6.2709e-05  0:03:27  702
   299  2.0249e-02  1.8447e-02  1.4382e-02  1.4904e-02  4.8075e-04  6.1768e-05  0:02:46  701
   300  2.0189e-02  1.8510e-02  1.4176e-02  1.4828e-02  4.7665e-04  6.1164e-05  0:02:12  700
   301  2.0187e-02  1.8718e-02  1.4138e-02  1.4770e-02  4.6746e-04  6.0987e-05  0:01:46  699
   302  2.0192e-02  1.8913e-02  1.4150e-02  1.4715e-02  4.5626e-04  6.0246e-05  0:01:24  698
   303  2.0217e-02  1.9097e-02  1.4188e-02  1.4678e-02  4.5502e-04  5.9066e-05  0:03:27  697
   304  2.0331e-02  1.9224e-02  1.4125e-02  1.4742e-02  4.4265e-04  5.7568e-05  0:02:45  696
   305  2.0468e-02  1.9317e-02  1.3945e-02  1.4850e-02  4.2228e-04  5.6054e-05  0:02:12  695
   306  2.0675e-02  1.9605e-02  1.3901e-02  1.5020e-02  4.0761e-04  5.4758e-05  0:01:45  694
   307  2.0975e-02  1.9896e-02  1.3924e-02  1.4990e-02  3.9993e-04  5.3013e-05  0:01:24  693
   308  2.0834e-02  1.9862e-02  1.3781e-02  1.4970e-02  3.9780e-04  5.1691e-05  0:03:26  692

  iter  continuity  x-velocity  y-velocity      energy           k       omega     time/iter
   309  2.0712e-02  1.9830e-02  1.3620e-02  1.4913e-02  4.0134e-04  5.1362e-05  0:02:44  691
   310  2.0657e-02  1.9862e-02  1.3775e-02  1.4864e-02  4.0767e-04  5.1605e-05  0:02:11  690
   311  2.0685e-02  1.9996e-02  1.4054e-02  1.4884e-02  4.2164e-04  5.0636e-05  0:01:45  689
   312  2.0723e-02  1.9985e-02  1.3840e-02  1.4901e-02  4.3996e-04  4.9368e-05  0:01:24  688
   313  2.0837e-02  2.0004e-02  1.3754e-02  1.4983e-02  4.5766e-04  4.8675e-05  0:03:24  687
   314  2.1013e-02  2.0093e-02  1.3745e-02  1.5135e-02  4.7556e-04  4.8655e-05  0:02:43  686
   315  2.1075e-02  2.0121e-02  1.3728e-02  1.5179e-02  4.9551e-04  4.8202e-05  0:02:10  685
   316  2.0946e-02  1.9990e-02  1.3626e-02  1.5203e-02  5.1090e-04  4.7639e-05  0:01:44  684
   317  2.0875e-02  2.0570e-02  1.3685e-02  1.5032e-02  5.2188e-04  4.8099e-05  0:03:40  683
   318  2.0596e-02  2.0444e-02  1.3631e-02  1.4834e-02  5.2386e-04  4.8145e-05  0:02:56  682
   319  2.0367e-02  2.0684e-02  1.3543e-02  1.4680e-02  5.1963e-04  4.7863e-05  0:02:20  681

  iter  continuity  x-velocity  y-velocity      energy           k       omega     time/iter
   320  2.0155e-02  2.1121e-02  1.3983e-02  1.4543e-02  5.1808e-04  4.8059e-05  0:01:52  680
   321  1.9849e-02  2.0487e-02  1.3748e-02  1.4291e-02  4.9236e-04  4.8458e-05  0:01:30  679
   322  1.9598e-02  2.0288e-02  1.3874e-02  1.4090e-02  4.7322e-04  4.7758e-05  0:01:11  678
   323  1.9539e-02  2.0497e-02  1.3948e-02  1.4066e-02  4.4918e-04  4.7334e-05  0:03:13  677
   324  1.9586e-02  2.0623e-02  1.3947e-02  1.4128e-02  4.0948e-04  4.7558e-05  0:02:34  676
   325  1.9657e-02  2.0626e-02  1.4000e-02  1.4206e-02  3.7874e-04  4.8114e-05  0:02:03  675
   326  1.9791e-02  2.0411e-02  1.3999e-02  1.4333e-02  3.5987e-04  4.8709e-05  0:01:38  674
   327  1.9890e-02  2.0248e-02  1.3983e-02  1.4428e-02  3.4327e-04  4.9283e-05  0:01:18  673
   328  1.9983e-02  2.0230e-02  1.3990e-02  1.4519e-02  3.2058e-04  5.0018e-05  0:03:17  672
   329  2.0083e-02  2.0137e-02  1.4042e-02  1.4617e-02  3.1561e-04  5.0852e-05  0:02:37  671
   330  2.0225e-02  2.0170e-02  1.4065e-02  1.4809e-02  3.1322e-04  5.1570e-05  0:02:06  670

  iter  continuity  x-velocity  y-velocity      energy           k       omega     time/iter
   331  2.0247e-02  2.0187e-02  1.4017e-02  1.5019e-02  3.1098e-04  5.2259e-05  0:01:40  669
   332  2.0255e-02  2.0119e-02  1.3983e-02  1.5149e-02  3.0844e-04  5.2993e-05  0:03:34  668
   333  2.0175e-02  1.9986e-02  1.3959e-02  1.5242e-02  3.0474e-04  5.3790e-05  0:02:51  667
   334  2.0001e-02  1.9945e-02  1.3972e-02  1.5205e-02  3.0153e-04  5.3096e-05  0:02:16  666
   335  1.9858e-02  1.9961e-02  1.4030e-02  1.5151e-02  2.9837e-04  5.2845e-05  0:01:49  665
   336  1.9751e-02  2.0010e-02  1.4121e-02  1.5070e-02  2.9467e-04  5.2804e-05  0:01:27  664
   337  1.9778e-02  2.0142e-02  1.4242e-02  1.5113e-02  2.9174e-04  5.2327e-05  0:01:10  663
   338  1.9869e-02  2.0210e-02  1.4345e-02  1.5217e-02  2.8856e-04  5.1999e-05  0:03:08  662
   339  1.9940e-02  2.0182e-02  1.4549e-02  1.5296e-02  2.8668e-04  5.1399e-05  0:02:30  661
   340  2.0006e-02  2.0106e-02  1.4626e-02  1.5365e-02  2.8520e-04  5.0557e-05  0:02:00  660
   341  2.0085e-02  2.0151e-02  1.4599e-02  1.5430e-02  2.8506e-04  5.0020e-05  0:01:36  659

  iter  continuity  x-velocity  y-velocity      energy           k       omega     time/iter
   342  1.9977e-02  2.0175e-02  1.4506e-02  1.5361e-02  2.8292e-04  4.9783e-05  0:03:28  658
   343  1.9989e-02  2.0234e-02  1.4549e-02  1.5327e-02  2.8260e-04  4.8430e-05  0:02:46  657
   344  1.9981e-02  2.0092e-02  1.4498e-02  1.5249e-02  2.8031e-04  4.7228e-05  0:02:13  656
   345  1.9752e-02  2.0034e-02  1.4412e-02  1.5139e-02  2.7711e-04  4.6079e-05  0:01:46  655
   346  1.9635e-02  1.9958e-02  1.4436e-02  1.5081e-02  2.7349e-04  4.4891e-05  0:01:25  654
   347  1.9591e-02  1.9973e-02  1.4533e-02  1.5045e-02  2.6983e-04  4.3651e-05  0:01:08  653
   348  1.9595e-02  2.0010e-02  1.4667e-02  1.4990e-02  2.6617e-04  4.2566e-05  0:03:04  652
   349  1.9626e-02  2.0013e-02  1.4676e-02  1.4932e-02  2.6212e-04  4.1838e-05  0:02:27  651
   350  1.9750e-02  2.0014e-02  1.4562e-02  1.4981e-02  2.5812e-04  4.1280e-05  0:01:58  650
   351  1.9903e-02  2.0423e-02  1.4841e-02  1.5077e-02  2.5358e-04  4.0491e-05  0:01:34  649
   352  2.0048e-02  2.0110e-02  1.4878e-02  1.5176e-02  2.5035e-04  3.9803e-05  0:01:15  648

  iter  continuity  x-velocity  y-velocity      energy           k       omega     time/iter
   353  1.9974e-02  1.9744e-02  1.4756e-02  1.5052e-02  2.4732e-04  3.9154e-05  0:03:09  647
   354  1.9823e-02  1.9706e-02  1.4721e-02  1.5007e-02  2.4308e-04  3.8380e-05  0:02:31  646
   355  1.9792e-02  1.9717e-02  1.4736e-02  1.5135e-02  2.3914e-04  3.7802e-05  0:02:01  645
   356  1.9843e-02  1.9864e-02  1.4840e-02  1.5372e-02  2.3562e-04  3.7441e-05  0:03:45  644
   357  1.9976e-02  2.0002e-02  1.5039e-02  1.5602e-02  2.3212e-04  3.6799e-05  0:03:00  643
   358  2.0185e-02  2.0053e-02  1.5228e-02  1.5787e-02  2.2854e-04  3.6665e-05  0:02:24  642
   359  2.0481e-02  2.0024e-02  1.5420e-02  1.5911e-02  2.2503e-04  3.6393e-05  0:01:55  641
   360  2.0771e-02  1.9979e-02  1.5570e-02  1.6010e-02  2.2137e-04  3.6538e-05  0:03:40  640
   361  2.0858e-02  1.9976e-02  1.5643e-02  1.6059e-02  2.1821e-04  3.6628e-05  0:02:55  639
   362  2.0800e-02  1.9972e-02  1.5674e-02  1.6007e-02  2.1579e-04  3.6920e-05  0:02:20  638
   363  2.0758e-02  1.9983e-02  1.5599e-02  1.5973e-02  2.1377e-04  3.7259e-05  0:01:52  637

  iter  continuity  x-velocity  y-velocity      energy           k       omega     time/iter
   364  2.0674e-02  2.0124e-02  1.5423e-02  1.5988e-02  2.1284e-04  3.7660e-05  0:01:29  636
   365  2.0526e-02  2.0238e-02  1.5326e-02  1.6011e-02  2.1265e-04  3.7915e-05  0:03:18  635
   366  2.0464e-02  2.0393e-02  1.5327e-02  1.6096e-02  2.1256e-04  3.8306e-05  0:02:38  634
   367  2.0460e-02  2.0544e-02  1.5291e-02  1.6068e-02  2.1350e-04  3.8917e-05  0:02:07  633
   368  2.0427e-02  2.0518e-02  1.5240e-02  1.5973e-02  2.1502e-04  3.9342e-05  0:01:41  632
   369  2.0386e-02  2.0618e-02  1.5225e-02  1.5884e-02  2.1753e-04  3.9867e-05  0:03:27  631
   370  2.0372e-02  2.0742e-02  1.5330e-02  1.5842e-02  2.2188e-04  4.0356e-05  0:02:45  630
   371  2.0301e-02  2.0808e-02  1.5376e-02  1.5735e-02  2.2325e-04  4.0765e-05  0:02:12  629
   372  2.0199e-02  2.0995e-02  1.5318e-02  1.5639e-02  2.2741e-04  4.1197e-05  0:01:45  628
   373  2.0164e-02  2.1173e-02  1.5386e-02  1.5664e-02  2.3277e-04  4.2104e-05  0:01:24  627
   374  2.0125e-02  2.1308e-02  1.5427e-02  1.5683e-02  2.3692e-04  4.2580e-05  0:03:12  626

  iter  continuity  x-velocity  y-velocity      energy           k       omega     time/iter
   375  2.0152e-02  2.1502e-02  1.5439e-02  1.5591e-02  2.4116e-04  4.3041e-05  0:02:34  625
   376  2.0153e-02  2.1487e-02  1.5320e-02  1.5558e-02  2.4478e-04  4.3195e-05  0:02:03  624
   377  2.0171e-02  2.1418e-02  1.5249e-02  1.5568e-02  2.4859e-04  4.3106e-05  0:01:38  623
   378  2.0286e-02  2.1483e-02  1.5261e-02  1.5699e-02  2.5138e-04  4.3332e-05  0:03:23  622
   379  2.0424e-02  2.1477e-02  1.5354e-02  1.5842e-02  2.5467e-04  4.3332e-05  0:02:42  621
   380  2.0556e-02  2.1455e-02  1.5433e-02  1.5869e-02  2.5765e-04  4.3412e-05  0:02:09  620
   381  2.0675e-02  2.1451e-02  1.5535e-02  1.5912e-02  2.6057e-04  4.3522e-05  0:01:43  619
   382  2.0735e-02  2.1470e-02  1.5659e-02  1.5995e-02  2.6350e-04  4.3643e-05  0:01:23  618
   383  2.0759e-02  2.1595e-02  1.5576e-02  1.6050e-02  2.6562e-04  4.3761e-05  0:03:09  617
   384  2.0744e-02  2.1800e-02  1.5746e-02  1.6062e-02  2.6755e-04  4.3872e-05  0:02:31  616
   385  2.0694e-02  2.1765e-02  1.5574e-02  1.6034e-02  2.6799e-04  4.3887e-05  0:02:01  615

  iter  continuity  x-velocity  y-velocity      energy           k       omega     time/iter
   386  2.0737e-02  2.1734e-02  1.5408e-02  1.6115e-02  2.6841e-04  4.4025e-05  0:01:36  614
   387  2.0793e-02  2.1704e-02  1.5267e-02  1.6213e-02  2.6836e-04  4.4110e-05  0:01:17  613
   388  2.0874e-02  2.1702e-02  1.5083e-02  1.6325e-02  2.6778e-04  4.4280e-05  0:01:02  612
   389  2.0980e-02  2.1827e-02  1.4914e-02  1.6440e-02  2.6761e-04  4.4281e-05  0:02:51  611
   390  2.1066e-02  2.1993e-02  1.4828e-02  1.6502e-02  2.6838e-04  4.4413e-05  0:02:17  610
   391  2.1165e-02  2.2103e-02  1.4909e-02  1.6577e-02  2.6683e-04  4.4230e-05  0:01:49  609
   392  2.1246e-02  2.2227e-02  1.4968e-02  1.6518e-02  2.6765e-04  4.4272e-05  0:01:27  608
   393  2.1209e-02  2.2286e-02  1.5142e-02  1.6229e-02  2.6741e-04  4.4255e-05  0:01:10  607
   394  2.1154e-02  2.2277e-02  1.5101e-02  1.6015e-02  2.6370e-04  4.3812e-05  0:02:57  606
   395  2.1134e-02  2.2370e-02  1.5112e-02  1.5955e-02  2.5979e-04  4.3196e-05  0:02:21  605
   396  2.1142e-02  2.2495e-02  1.5120e-02  1.5969e-02  2.5668e-04  4.3424e-05  0:01:53  604

  iter  continuity  x-velocity  y-velocity      energy           k       omega     time/iter
   397  2.0932e-02  2.2486e-02  1.5127e-02  1.6040e-02  2.5386e-04  4.3952e-05  0:01:30  603
   398  2.0737e-02  2.2504e-02  1.5072e-02  1.6129e-02  2.5398e-04  4.4355e-05  0:01:12  602
   399  2.0574e-02  2.2701e-02  1.4973e-02  1.6252e-02  2.5394e-04  4.4718e-05  0:00:57  601
   400  2.0418e-02  2.2758e-02  1.4867e-02  1.6359e-02  2.5651e-04  4.5145e-05  0:02:46  600
   401  2.0296e-02  2.2872e-02  1.4803e-02  1.6305e-02  2.6191e-04  4.6257e-05  0:02:13  599
   402  2.0221e-02  2.2987e-02  1.4878e-02  1.6277e-02  2.6151e-04  4.5995e-05  0:01:46  598
   403  2.0173e-02  2.2986e-02  1.4947e-02  1.6250e-02  2.6173e-04  4.6069e-05  0:01:25  597
   404  2.0214e-02  2.3283e-02  1.4962e-02  1.6303e-02  2.6278e-04  4.5946e-05  0:01:08  596
   405  2.0130e-02  2.3779e-02  1.5416e-02  1.6236e-02  2.6157e-04  4.5650e-05  0:02:53  595
   406  2.0037e-02  2.3698e-02  1.5270e-02  1.6151e-02  2.6180e-04  4.5579e-05  0:02:18  594
   407  2.0037e-02  2.3794e-02  1.5402e-02  1.6078e-02  2.5913e-04  4.5698e-05  0:01:50  593

  iter  continuity  x-velocity  y-velocity      energy           k       omega     time/iter
   408  2.0125e-02  2.3976e-02  1.5549e-02  1.6087e-02  2.4248e-04  4.6219e-05  0:01:28  592
   409  2.0223e-02  2.3979e-02  1.5619e-02  1.6105e-02  2.3218e-04  4.6407e-05  0:01:10  591
   410  2.0291e-02  2.4002e-02  1.5782e-02  1.6142e-02  2.3111e-04  4.6438e-05  0:00:56  590
   411  2.0257e-02  2.4079e-02  1.5656e-02  1.6133e-02  2.3371e-04  4.6702e-05  0:02:43  589
   412  2.0157e-02  2.4096e-02  1.5413e-02  1.6065e-02  2.3594e-04  4.7520e-05  0:02:10  588
   413  2.0070e-02  2.4073e-02  1.5187e-02  1.6004e-02  2.3831e-04  4.8769e-05  0:01:44  587
   414  1.9980e-02  2.3936e-02  1.5033e-02  1.5932e-02  2.3955e-04  4.9297e-05  0:01:23  586
   415  1.9914e-02  2.3804e-02  1.4991e-02  1.5887e-02  2.3980e-04  4.9805e-05  0:01:06  585
   416  1.9851e-02  2.3732e-02  1.4997e-02  1.5865e-02  2.4080e-04  5.0969e-05  0:02:50  584
   417  1.9758e-02  2.3648e-02  1.4942e-02  1.5831e-02  2.3932e-04  5.1576e-05  0:02:15  583
   418  1.9666e-02  2.3593e-02  1.4966e-02  1.5789e-02  2.3944e-04  5.2353e-05  0:01:48  582

  iter  continuity  x-velocity  y-velocity      energy           k       omega     time/iter
   419  1.9597e-02  2.3552e-02  1.5012e-02  1.5726e-02  2.4059e-04  5.3675e-05  0:01:26  581
   420  1.9486e-02  2.3365e-02  1.5053e-02  1.5618e-02  2.4148e-04  5.4455e-05  0:01:09  580
   421  1.9378e-02  2.3180e-02  1.5033e-02  1.5508e-02  2.4128e-04  5.5650e-05  0:00:55  579
   422  1.9313e-02  2.3140e-02  1.5039e-02  1.5292e-02  2.4096e-04  5.6232e-05  0:02:40  578
   423  1.9249e-02  2.3127e-02  1.5009e-02  1.5090e-02  2.4010e-04  5.6686e-05  0:02:07  577
   424  1.9129e-02  2.3168e-02  1.4948e-02  1.4922e-02  2.3899e-04  5.7149e-05  0:01:42  576
   425  1.8974e-02  2.3240e-02  1.4899e-02  1.4798e-02  2.3699e-04  5.7785e-05  0:01:21  575
   426  1.8849e-02  2.3285e-02  1.4894e-02  1.4700e-02  2.3562e-04  5.8798e-05  0:01:05  574
   427  1.8772e-02  2.3280e-02  1.4900e-02  1.4645e-02  2.3468e-04  5.9457e-05  0:02:46  573
   428  1.8682e-02  2.3246e-02  1.4897e-02  1.4576e-02  2.3427e-04  6.0040e-05  0:02:13  572
   429  1.8567e-02  2.3137e-02  1.4837e-02  1.4479e-02  2.3454e-04  6.0680e-05  0:01:46  571

  iter  continuity  x-velocity  y-velocity      energy           k       omega     time/iter
   430  1.8463e-02  2.3017e-02  1.4839e-02  1.4393e-02  2.3421e-04  6.1140e-05  0:01:25  570
   431  1.8376e-02  2.2913e-02  1.4832e-02  1.4328e-02  2.3367e-04  6.1095e-05  0:01:08  569
   432  1.8337e-02  2.2914e-02  1.4842e-02  1.4305e-02  2.3381e-04  6.1048e-05  0:00:54  568
   433  1.8320e-02  2.2929e-02  1.4879e-02  1.4302e-02  2.3171e-04  6.0950e-05  0:02:37  567
   434  1.8276e-02  2.2949e-02  1.4779e-02  1.4270e-02  2.2807e-04  6.0914e-05  0:02:05  566
   435  1.8220e-02  2.2893e-02  1.4622e-02  1.4210e-02  2.2478e-04  6.1227e-05  0:01:40  565
   436  1.8184e-02  2.2876e-02  1.4475e-02  1.4175e-02  2.2153e-04  6.1200e-05  0:01:20  564
   437  1.8204e-02  2.2891e-02  1.4405e-02  1.4197e-02  2.1873e-04  6.1547e-05  0:01:04  563
   438  1.8238e-02  2.2847e-02  1.4360e-02  1.4223e-02  2.1508e-04  6.1135e-05  0:02:43  562
   439  1.8203e-02  2.2488e-02  1.4286e-02  1.4180e-02  2.1255e-04  6.1080e-05  0:02:10  561
   440  1.8082e-02  2.2191e-02  1.4240e-02  1.4158e-02  2.0884e-04  6.0246e-05  0:01:44  560

  iter  continuity  x-velocity  y-velocity      energy           k       omega     time/iter
   441  1.7883e-02  2.2042e-02  1.4195e-02  1.4199e-02  2.0594e-04  5.9481e-05  0:01:23  559
   442  1.7704e-02  2.1931e-02  1.4097e-02  1.4243e-02  2.0289e-04  5.8612e-05  0:01:06  558
   443  1.7526e-02  2.1855e-02  1.4043e-02  1.4191e-02  1.9989e-04  5.7534e-05  0:00:53  557
   444  1.7371e-02  2.1842e-02  1.4032e-02  1.4067e-02  1.9729e-04  5.6416e-05  0:02:34  556
   445  1.7250e-02  2.1809e-02  1.4051e-02  1.3957e-02  1.9466e-04  5.4668e-05  0:02:03  555
   446  1.7174e-02  2.1812e-02  1.4122e-02  1.3867e-02  1.9270e-04  5.3454e-05  0:01:38  554
   447  1.7161e-02  2.1772e-02  1.4188e-02  1.3776e-02  1.9082e-04  5.2259e-05  0:01:18  553
   448  1.7209e-02  2.1738e-02  1.4209e-02  1.3720e-02  1.8873e-04  5.1209e-05  0:01:02  552
   449  1.7289e-02  2.1707e-02  1.4174e-02  1.3711e-02  1.8681e-04  5.0415e-05  0:00:50  551
   450  1.7374e-02  2.1670e-02  1.4111e-02  1.3725e-02  1.8472e-04  4.9804e-05  0:02:30  550
   451  1.7453e-02  2.1630e-02  1.4010e-02  1.3736e-02  1.8240e-04  4.9243e-05  0:02:00  549

  iter  continuity  x-velocity  y-velocity      energy           k       omega     time/iter
   452  1.7523e-02  2.1577e-02  1.3899e-02  1.3726e-02  1.8001e-04  4.8929e-05  0:01:36  548
   453  1.7613e-02  2.1518e-02  1.3882e-02  1.3725e-02  1.7763e-04  4.8422e-05  0:01:16  547
   454  1.7562e-02  2.1432e-02  1.3900e-02  1.3745e-02  1.7594e-04  4.7909e-05  0:02:50  546
   455  1.7501e-02  2.1345e-02  1.3784e-02  1.3732e-02  1.7486e-04  4.7624e-05  0:02:16  545
   456  1.7505e-02  2.1303e-02  1.3788e-02  1.3716e-02  1.7409e-04  4.7625e-05  0:01:48  544
   457  1.7576e-02  2.1230e-02  1.3862e-02  1.3621e-02  1.7324e-04  4.7392e-05  0:01:27  543
   458  1.7532e-02  2.1108e-02  1.3888e-02  1.3587e-02  1.7334e-04  4.8873e-05  0:02:58  542
   459  1.7512e-02  2.0930e-02  1.3805e-02  1.3591e-02  1.7310e-04  4.8393e-05  0:02:22  541
   460  1.7534e-02  2.0788e-02  1.3682e-02  1.3630e-02  1.7266e-04  4.8214e-05  0:01:53  540
   461  1.7613e-02  2.0653e-02  1.3562e-02  1.3715e-02  1.7210e-04  4.7923e-05  0:01:30  539
   462  1.7507e-02  2.0556e-02  1.3477e-02  1.3799e-02  1.7116e-04  4.7306e-05  0:01:12  538

  iter  continuity  x-velocity  y-velocity      energy           k       omega     time/iter
   463  1.7375e-02  2.0498e-02  1.3397e-02  1.3635e-02  1.7038e-04  4.6668e-05  0:02:45  537
   464  1.7070e-02  2.0345e-02  1.3365e-02  1.3313e-02  1.7005e-04  4.7178e-05  0:02:12  536
   465  1.6888e-02  2.0244e-02  1.3370e-02  1.3104e-02  1.7033e-04  4.7927e-05  0:01:45  535
   466  1.6871e-02  2.0146e-02  1.3398e-02  1.3051e-02  1.7057e-04  4.8595e-05  0:01:24  534
   467  1.6899e-02  2.0037e-02  1.3406e-02  1.3050e-02  1.7138e-04  4.9299e-05  0:01:07  533
   468  1.6961e-02  1.9982e-02  1.3382e-02  1.3091e-02  1.7375e-04  4.9623e-05  0:00:54  532
   469  1.7063e-02  1.9955e-02  1.3348e-02  1.3176e-02  1.7611e-04  4.9945e-05  0:02:29  531
   470  1.7177e-02  1.9897e-02  1.3305e-02  1.3279e-02  1.7841e-04  5.0111e-05  0:01:59  530
   471  1.7280e-02  1.9882e-02  1.3266e-02  1.3390e-02  1.7971e-04  4.9957e-05  0:01:35  529
   472  1.7359e-02  1.9894e-02  1.3204e-02  1.3477e-02  1.8103e-04  4.9218e-05  0:01:16  528
   473  1.7453e-02  1.9884e-02  1.3164e-02  1.3581e-02  1.8282e-04  4.8545e-05  0:01:01  527

  iter  continuity  x-velocity  y-velocity      energy           k       omega     time/iter
   474  1.7496e-02  1.9841e-02  1.3142e-02  1.3719e-02  1.8548e-04  4.8391e-05  0:02:34  526
   475  1.7479e-02  1.9782e-02  1.3112e-02  1.3748e-02  1.8675e-04  4.8367e-05  0:02:03  525
   476  1.7312e-02  1.9788e-02  1.3110e-02  1.3798e-02  1.8787e-04  4.8270e-05  0:01:38  524
   477  1.7136e-02  1.9779e-02  1.3090e-02  1.3683e-02  1.8879e-04  4.8337e-05  0:01:18  523
   478  1.6985e-02  1.9737e-02  1.3032e-02  1.3578e-02  1.8983e-04  4.8315e-05  0:01:02  522
   479  1.6889e-02  1.9740e-02  1.2977e-02  1.3524e-02  1.9101e-04  4.8235e-05  0:02:34  521
   480  1.6792e-02  1.9730e-02  1.2911e-02  1.3468e-02  1.9083e-04  4.7964e-05  0:02:03  520
   481  1.6718e-02  1.9683e-02  1.2880e-02  1.3428e-02  1.9110e-04  4.7623e-05  0:01:38  519
   482  1.6666e-02  1.9648e-02  1.2853e-02  1.3407e-02  1.9188e-04  4.7702e-05  0:01:18  518
   483  1.6618e-02  1.9662e-02  1.2788e-02  1.3390e-02  1.9327e-04  4.7583e-05  0:01:03  517
   484  1.6597e-02  1.9692e-02  1.2788e-02  1.3397e-02  1.9536e-04  4.7350e-05  0:02:33  516

  iter  continuity  x-velocity  y-velocity      energy           k       omega     time/iter
   485  1.6603e-02  1.9763e-02  1.2817e-02  1.3422e-02  1.9785e-04  4.7183e-05  0:02:02  515
   486  1.6630e-02  1.9859e-02  1.2861e-02  1.3435e-02  2.0060e-04  4.7031e-05  0:01:38  514
   487  1.6674e-02  2.0004e-02  1.2905e-02  1.3465e-02  2.0215e-04  4.6616e-05  0:01:18  513
   488  1.6682e-02  2.0011e-02  1.2931e-02  1.3455e-02  2.0429e-04  4.6482e-05  0:01:02  512
   489  1.6694e-02  2.0084e-02  1.2927e-02  1.3452e-02  2.0898e-04  4.6396e-05  0:00:50  511
   490  1.6656e-02  1.9856e-02  1.2816e-02  1.3396e-02  2.1904e-04  4.6077e-05  0:02:22  510
   491  1.6625e-02  1.9707e-02  1.2736e-02  1.3353e-02  2.2688e-04  4.6177e-05  0:01:53  509
   492  1.6567e-02  1.9579e-02  1.2699e-02  1.3312e-02  2.2769e-04  4.6358e-05  0:01:30  508
   493  1.6486e-02  1.9520e-02  1.2665e-02  1.3297e-02  2.2793e-04  4.6367e-05  0:01:12  507
   494  1.6419e-02  1.9458e-02  1.2596e-02  1.3282e-02  2.2992e-04  4.6495e-05  0:00:58  506
   495  1.6397e-02  1.9472e-02  1.2529e-02  1.3290e-02  2.3296e-04  4.6401e-05  0:02:27  505

  iter  continuity  x-velocity  y-velocity      energy           k       omega     time/iter
   496  1.6390e-02  1.9471e-02  1.2487e-02  1.3296e-02  2.3639e-04  4.6634e-05  0:01:57  504
   497  1.6404e-02  1.9522e-02  1.2482e-02  1.3312e-02  2.3945e-04  4.7047e-05  0:01:34  503
   498  1.6395e-02  1.9459e-02  1.2392e-02  1.3302e-02  2.4191e-04  4.7673e-05  0:01:15  502
   499  1.6410e-02  1.9389e-02  1.2339e-02  1.3312e-02  2.3992e-04  4.8646e-05  0:01:00  501
   500  1.6439e-02  1.9343e-02  1.2317e-02  1.3332e-02  2.4157e-04  4.9781e-05  0:00:48  500
   501  1.6477e-02  1.9327e-02  1.2322e-02  1.3353e-02  2.4395e-04  5.0027e-05  0:02:18  499
   502  1.6509e-02  1.9354e-02  1.2337e-02  1.3363e-02  2.4632e-04  5.0558e-05  0:01:50  498
   503  1.6536e-02  1.9398e-02  1.2365e-02  1.3372e-02  2.4928e-04  5.1264e-05  0:01:28  497
   504  1.6567e-02  1.9452e-02  1.2397e-02  1.3380e-02  2.5089e-04  5.1913e-05  0:01:10  496
   505  1.6592e-02  1.9520e-02  1.2420e-02  1.3381e-02  2.5849e-04  5.2326e-05  0:00:56  495
   506  1.6600e-02  1.9515e-02  1.2433e-02  1.3359e-02  2.4873e-04  5.2980e-05  0:02:24  494

  iter  continuity  x-velocity  y-velocity      energy           k       omega     time/iter
   507  1.6604e-02  1.9572e-02  1.2421e-02  1.3346e-02  2.4579e-04  5.3647e-05  0:01:55  493
   508  1.6639e-02  1.9686e-02  1.2432e-02  1.3361e-02  2.4136e-04  5.4327e-05  0:01:31  492
   509  1.6699e-02  1.9857e-02  1.2429e-02  1.3400e-02  2.3661e-04  5.5008e-05  0:01:13  491
   510  1.6749e-02  1.9977e-02  1.2430e-02  1.3420e-02  2.3094e-04  5.5278e-05  0:00:58  490
   511  1.6760e-02  2.0014e-02  1.2430e-02  1.3411e-02  2.2505e-04  5.5323e-05  0:02:24  489
   512  1.6780e-02  2.0059e-02  1.2447e-02  1.3418e-02  2.1942e-04  5.5607e-05  0:01:55  488
   513  1.6806e-02  2.0151e-02  1.2480e-02  1.3448e-02  2.1417e-04  5.5918e-05  0:01:32  487
   514  1.6826e-02  2.0260e-02  1.2524e-02  1.3482e-02  2.0988e-04  5.6282e-05  0:01:13  486
   515  1.6827e-02  2.0291e-02  1.2558e-02  1.3490e-02  2.0612e-04  5.6612e-05  0:00:59  485
   516  1.6830e-02  2.0331e-02  1.2594e-02  1.3500e-02  2.0210e-04  5.6787e-05  0:00:47  484
   517  1.6845e-02  2.0419e-02  1.2654e-02  1.3523e-02  1.9881e-04  5.7091e-05  0:02:14  483

  iter  continuity  x-velocity  y-velocity      energy           k       omega     time/iter
   518  1.6862e-02  2.0521e-02  1.2721e-02  1.3547e-02  1.9558e-04  5.7165e-05  0:01:47  482
   519  1.6886e-02  2.0581e-02  1.2739e-02  1.3584e-02  1.9245e-04  5.7649e-05  0:01:25  481
   520  1.6869e-02  2.0605e-02  1.2737e-02  1.3597e-02  1.9105e-04  5.7929e-05  0:01:08  480
   521  1.6874e-02  2.0683e-02  1.2765e-02  1.3632e-02  1.9091e-04  5.7641e-05  0:00:54  479
   522  1.6837e-02  2.0750e-02  1.2746e-02  1.3628e-02  1.9158e-04  5.7466e-05  0:00:43  478
   523  1.6782e-02  2.0827e-02  1.2665e-02  1.3609e-02  1.9283e-04  5.6292e-05  0:02:10  477
   524  1.6744e-02  2.0867e-02  1.2604e-02  1.3602e-02  1.9420e-04  5.6520e-05  0:01:44  476
   525  1.6704e-02  2.0880e-02  1.2544e-02  1.3592e-02  1.9594e-04  5.6637e-05  0:01:23  475
   526  1.6650e-02  2.0891e-02  1.2501e-02  1.3559e-02  1.9801e-04  5.7068e-05  0:01:06  474
   527  1.6601e-02  2.0927e-02  1.2482e-02  1.3510e-02  2.0361e-04  5.6956e-05  0:00:53  473
   528  1.6568e-02  2.0932e-02  1.2437e-02  1.3476e-02  2.0401e-04  5.6915e-05  0:02:17  472

  iter  continuity  x-velocity  y-velocity      energy           k       omega     time/iter
   529  1.6526e-02  2.0939e-02  1.2365e-02  1.3460e-02  2.0200e-04  5.7126e-05  0:01:49  471
   530  1.6488e-02  2.0953e-02  1.2287e-02  1.3457e-02  2.0323e-04  5.7702e-05  0:01:27  470
   531  1.6468e-02  2.0974e-02  1.2205e-02  1.3461e-02  2.0573e-04  5.8744e-05  0:01:09  469
   532  1.6451e-02  2.0939e-02  1.2122e-02  1.3451e-02  2.0634e-04  6.0004e-05  0:00:55  468
   533  1.6447e-02  2.0892e-02  1.2039e-02  1.3441e-02  2.1162e-04  6.1350e-05  0:02:18  467
   534  1.6460e-02  2.0862e-02  1.1962e-02  1.3434e-02  2.1964e-04  6.2073e-05  0:01:50  466
   535  1.6471e-02  2.0867e-02  1.1859e-02  1.3423e-02  2.2816e-04  6.2678e-05  0:01:28  465
   536  1.6501e-02  2.0907e-02  1.1777e-02  1.3409e-02  2.3751e-04  6.3936e-05  0:01:10  464
   537  1.6521e-02  2.0961e-02  1.1736e-02  1.3404e-02  2.4424e-04  6.4735e-05  0:00:56  463
   538  1.6495e-02  2.0975e-02  1.1714e-02  1.3399e-02  2.4717e-04  6.6916e-05  0:00:45  462
   539  1.6486e-02  2.0998e-02  1.1722e-02  1.3400e-02  2.5066e-04  6.8926e-05  0:02:08  461

  iter  continuity  x-velocity  y-velocity      energy           k       omega     time/iter
   540  1.6501e-02  2.1070e-02  1.1745e-02  1.3419e-02  2.4567e-04  7.0515e-05  0:01:42  460
   541  1.6492e-02  2.1118e-02  1.1784e-02  1.3423e-02  2.4443e-04  7.1894e-05  0:01:21  459
   542  1.6430e-02  2.1103e-02  1.1800e-02  1.3374e-02  2.3821e-04  7.3214e-05  0:01:05  458
   543  1.6374e-02  2.1138e-02  1.1808e-02  1.3325e-02  2.2565e-04  7.4853e-05  0:00:52  457
   544  1.6319e-02  2.1187e-02  1.1819e-02  1.3275e-02  2.1412e-04  7.5181e-05  0:02:13  456
   545  1.6241e-02  2.1086e-02  1.1776e-02  1.3203e-02  2.0476e-04  7.5758e-05  0:01:46  455
   546  1.6152e-02  2.1008e-02  1.1708e-02  1.3137e-02  1.9818e-04  7.6618e-05  0:01:25  454
   547  1.6082e-02  2.0980e-02  1.1654e-02  1.3085e-02  1.9307e-04  7.5611e-05  0:01:07  453
   548  1.6016e-02  2.0949e-02  1.1597e-02  1.3037e-02  1.8894e-04  7.6301e-05  0:00:54  452
   549  1.5975e-02  2.0940e-02  1.1540e-02  1.3005e-02  1.8835e-04  7.7259e-05  0:00:43  451
   550  1.5957e-02  2.0954e-02  1.1499e-02  1.2993e-02  1.8873e-04  7.7682e-05  0:02:04  450

  iter  continuity  x-velocity  y-velocity      energy           k       omega     time/iter
   551  1.5908e-02  2.0900e-02  1.1455e-02  1.2966e-02  1.8776e-04  7.8576e-05  0:01:39  449
   552  1.5847e-02  2.0892e-02  1.1424e-02  1.2958e-02  1.8630e-04  7.7160e-05  0:01:19  448
   553  1.5785e-02  2.0858e-02  1.1386e-02  1.2941e-02  1.8770e-04  7.6974e-05  0:02:33  447
   554  1.5740e-02  2.0858e-02  1.1356e-02  1.2936e-02  1.8944e-04  7.6816e-05  0:02:02  446
   555  1.5675e-02  2.0862e-02  1.1336e-02  1.2938e-02  1.9240e-04  7.7618e-05  0:01:37  445
   556  1.5589e-02  2.0920e-02  1.1329e-02  1.2956e-02  1.9577e-04  7.8323e-05  0:01:18  444
   557  1.5521e-02  2.0953e-02  1.1316e-02  1.2969e-02  1.9903e-04  7.8823e-05  0:01:02  443
   558  1.5469e-02  2.0899e-02  1.1268e-02  1.2972e-02  2.0398e-04  7.8327e-05  0:02:18  442
   559  1.5392e-02  2.0787e-02  1.1196e-02  1.2960e-02  2.1108e-04  7.8451e-05  0:01:50  441
   560  1.5335e-02  2.0741e-02  1.1108e-02  1.2940e-02  2.1942e-04  7.9095e-05  0:01:28  440
   561  1.5250e-02  2.0769e-02  1.0991e-02  1.2868e-02  2.3040e-04  7.9107e-05  0:01:10  439

  iter  continuity  x-velocity  y-velocity      energy           k       omega     time/iter
   562  1.5196e-02  2.0762e-02  1.0932e-02  1.2817e-02  2.3632e-04  7.8979e-05  0:02:24  438
   563  1.5168e-02  2.0737e-02  1.0897e-02  1.2784e-02  2.4382e-04  7.8338e-05  0:01:55  437
   564  1.5133e-02  2.0652e-02  1.0836e-02  1.2734e-02  2.5346e-04  7.7397e-05  0:01:31  436
   565  1.5106e-02  2.0532e-02  1.0746e-02  1.2662e-02  2.6571e-04  7.6380e-05  0:01:13  435
   566  1.5093e-02  2.0434e-02  1.0634e-02  1.2596e-02  2.8393e-04  7.5069e-05  0:00:58  434
   567  1.5098e-02  2.0344e-02  1.0536e-02  1.2546e-02  3.1481e-04  7.4773e-05  0:00:47  433
   568  1.5123e-02  2.0270e-02  1.0450e-02  1.2513e-02  3.4318e-04  7.4443e-05  0:02:04  432
   569  1.5157e-02  2.0227e-02  1.0375e-02  1.2487e-02  3.7600e-04  7.4856e-05  0:01:39  431
   570  1.5185e-02  2.0205e-02  1.0299e-02  1.2460e-02  3.9989e-04  7.4718e-05  0:01:19  430
   571  1.5193e-02  2.0218e-02  1.0254e-02  1.2446e-02  4.0081e-04  7.4666e-05  0:01:03  429
   572  1.5190e-02  2.0303e-02  1.0234e-02  1.2460e-02  4.1463e-04  7.4626e-05  0:00:50  428

  iter  continuity  x-velocity  y-velocity      energy           k       omega     time/iter
   573  1.5191e-02  2.0367e-02  1.0220e-02  1.2468e-02  4.2714e-04  7.4076e-05  0:02:05  427
   574  1.5180e-02  2.0422e-02  1.0207e-02  1.2464e-02  4.3858e-04  7.3729e-05  0:01:40  426
   575  1.5143e-02  2.0462e-02  1.0177e-02  1.2448e-02  4.2933e-04  7.2916e-05  0:01:20  425
   576  1.5093e-02  2.0477e-02  1.0147e-02  1.2414e-02  3.0813e-04  7.2531e-05  0:01:04  424
   577  1.5068e-02  2.0510e-02  1.0126e-02  1.2398e-02  2.5489e-04  7.1554e-05  0:00:51  423
   578  1.5059e-02  2.0554e-02  1.0118e-02  1.2394e-02  2.4915e-04  7.0726e-05  0:00:41  422
   579  1.5083e-02  2.0666e-02  1.0144e-02  1.2432e-02  2.5530e-04  6.9420e-05  0:01:57  421
   580  1.5098e-02  2.0784e-02  1.0169e-02  1.2469e-02  2.6252e-04  6.8679e-05  0:01:33  420
   581  1.5106e-02  2.0889e-02  1.0206e-02  1.2504e-02  2.6570e-04  6.8058e-05  0:01:14  419
   582  1.5116e-02  2.0971e-02  1.0244e-02  1.2524e-02  2.6295e-04  6.7014e-05  0:00:59  418
   583  1.5123e-02  2.1027e-02  1.0262e-02  1.2526e-02  2.4964e-04  6.5534e-05  0:00:47  417

[...]
(cx-gui-do cx-activate-item "Solution XY Plot*Table1*Table3*Table2*DropDownList2")
(cx-gui-do cx-set-list-selections "Solution XY Plot*Table1*Table3*Frame3*List1(Surfaces)" '( 10))
(cx-gui-do cx-activate-item "Solution XY Plot*Table1*Table3*Frame3*List1(Surfaces)")
(cx-gui-do cx-activate-item "Solution XY Plot*PanelButtons*PushButton1(OK)")
(cx-gui-do cx-set-list-selections "Solution XY Plot*Table1*Table3*Table2*DropDownList1(X Axis Function)" '( 7))
(cx-gui-do cx-activate-item "Solution XY Plot*Table1*Table3*Table2*DropDownList1(X Axis Function)")
(cx-gui-do cx-set-list-selections "Solution XY Plot*Table1*Table3*Table2*DropDownList2" '( 2))
(cx-gui-do cx-activate-item "Solution XY Plot*Table1*Table3*Table2*DropDownList2")
(cx-gui-do cx-activate-item "Solution XY Plot*PanelButtons*PushButton1(OK)")
(cx-gui-do cx-set-list-selections "Solution XY Plot*Table1*Table3*Table2*DropDownList1(X Axis Function)" '( 8))
(cx-gui-do cx-activate-item "Solution XY Plot*Table1*Table3*Table2*DropDownList1(X Axis Function)")
(cx-gui-do cx-set-list-selections "Solution XY Plot*Table1*Table3*Table2*DropDownList2" '( 7))
(cx-gui-do cx-activate-item "Solution XY Plot*Table1*Table3*Table2*DropDownList2")
(cx-gui-do cx-activate-item "Solution XY Plot*PanelButtons*PushButton1(OK)")
(cx-gui-do cx-set-list-selections "Solution XY Plot*Table1*Table3*Table2*DropDownList1(X Axis Function)" '( 4))
(cx-gui-do cx-activate-item "Solution XY Plot*Table1*Table3*Table2*DropDownList1(X Axis Function)")
(cx-gui-do cx-set-list-selections "Solution XY Plot*Table1*Table3*Table2*DropDownList2" '( 11))
(cx-gui-do cx-activate-item "Solution XY Plot*Table1*Table3*Table2*DropDownList2")
(cx-gui-do cx-activate-item "Solution XY Plot*PanelButtons*PushButton1(OK)")
(cx-gui-do cx-set-list-selections "Solution XY Plot*Table1*Table3*Table2*DropDownList2" '( 12))
(cx-gui-do cx-activate-item "Solution XY Plot*Table1*Table3*Table2*DropDownList2")
(cx-gui-do cx-activate-item "Solution XY Plot*PanelButtons*PushButton1(OK)")
(cx-gui-do cx-set-list-selections "Solution XY Plot*Table1*Table3*Table2*DropDownList2" '( 12))
(cx-gui-do cx-activate-item "Solution XY Plot*Table1*Table3*Table2*DropDownList2")
(cx-gui-do cx-set-list-selections "Solution XY Plot*Table1*Table3*Table2*DropDownList1(X Axis Function)" '( 5))
(cx-gui-do cx-activate-item "Solution XY Plot*Table1*Table3*Table2*DropDownList1(X Axis Function)")
(cx-gui-do cx-set-list-selections "Solution XY Plot*Table1*Table3*Table2*DropDownList2" '( 6))
(cx-gui-do cx-activate-item "Solution XY Plot*Table1*Table3*Table2*DropDownList2")
(cx-gui-do cx-activate-item "Solution XY Plot*PanelButtons*PushButton1(OK)")
(cx-gui-do cx-set-list-selections "Solution XY Plot*Table1*Table3*Frame3*List1(Surfaces)" '( 7 10))
(cx-gui-do cx-activate-item "Solution XY Plot*Table1*Table3*Frame3*List1(Surfaces)")
(cx-gui-do cx-set-list-selections "Solution XY Plot*Table1*Table3*Frame3*List1(Surfaces)" '( 7))
(cx-gui-do cx-activate-item "Solution XY Plot*Table1*Table3*Frame3*List1(Surfaces)")
(cx-gui-do cx-activate-item "Solution XY Plot*PanelButtons*PushButton1(OK)")
(cx-gui-do cx-set-list-tree-selections "NavigationPane*Frame2*Table1*List_Tree2" (list "Results|Graphics|Contours|mach"))
(cx-gui-do cx-set-list-tree-selections "NavigationPane*Frame2*Table1*List_Tree2" (list "Results|Graphics|Contours|mach"))
(cx-gui-do cx-activate-item "NavigationPane*Frame2*Table1*List_Tree2")
(cx-gui-do cx-set-list-tree-selections "NavigationPane*Frame2*Table1*List_Tree2" (list "Results|Graphics|Contours|mach"))
(cx-gui-do cx-activate-item "Contours*PanelButtons*PushButton1(OK)")
(cx-gui-do cx-set-list-tree-selections "NavigationPane*Frame2*Table1*List_Tree2" (list "Solution|Report Definitions"))
(cx-gui-do cx-set-list-tree-selections "NavigationPane*Frame2*Table1*List_Tree2" (list "Solution|Report Definitions"))
(cx-gui-do cx-activate-item "NavigationPane*Frame2*Table1*List_Tree2")
(cx-gui-do cx-set-list-tree-selections "NavigationPane*Frame2*Table1*List_Tree2" (list "Solution|Report Definitions"))
(cx-gui-do cx-activate-item "Report Definitions*Table1*ButtonBox3*PushButton1(New)")
(cx-gui-do cx-activate-item "Contours*PanelButtons*PushButton2(Cancel)")
(cx-gui-do cx-activate-item "Solution XY Plot*PanelButtons*PushButton2(Cancel)")
(cx-gui-do cx-activate-item "Report Definitions*Table1*ButtonBox3*PushButton1(New)")
(cx-gui-do cx-activate-item "MenuBar*Surface ReportSubMenu*Area-Weighted Average...")
(cx-gui-do cx-set-text-entry "Surface Report Definition*Table1*Table1*TextEntry1(Name)" "y_plus")
(cx-gui-do cx-activate-item "Surface Report Definition*Table1*Table1*TextEntry1(Name)")
(cx-gui-do cx-set-list-selections "Surface Report Definition*Table1*Table2*DropDownList3(Field Variable)" '( 4))
(cx-gui-do cx-activate-item "Surface Report Definition*Table1*Table2*DropDownList3(Field Variable)")
(cx-gui-do cx-set-list-selections "Surface Report Definition*Table1*Table2*DropDownList4" '( 11))
(cx-gui-do cx-activate-item "Surface Report Definition*Table1*Table2*DropDownList4")
(cx-gui-do cx-set-list-selections "Surface Report Definition*Table1*Table2*Table6*List1(Surfaces)" '( 7))
(cx-gui-do cx-activate-item "Surface Report Definition*Table1*Table2*Table6*List1(Surfaces)")
(cx-gui-do cx-set-list-selections "Surface Report Definition*Table1*Table2*Table6*List1(Surfaces)" '( 7))
(cx-gui-do cx-activate-item "Surface Report Definition*Table1*Table2*Table6*List1(Surfaces)")
(cx-gui-do cx-set-list-selections "Surface Report Definition*Table1*Table2*Table6*List1(Surfaces)" '( 7))
(cx-gui-do cx-activate-item "Surface Report Definition*Table1*Table2*Table6*List1(Surfaces)")
(cx-gui-do cx-activate-item "Surface Report Definition*PanelButtons*PushButton4(Compute)")

           Area-Weighted Average                    
-------------------------------- -------------------
                           walls           37.773585
(cx-gui-do cx-activate-item "Surface Report Definition*PanelButtons*PushButton1(OK)")
(cx-gui-do cx-set-list-selections "Report Definitions*Table1*List1(Report Definitions)" '( 2))
(cx-gui-do cx-activate-item "Report Definitions*Table1*List1(Report Definitions)")
(cx-gui-do cx-activate-item "Ribbon*Frame1*Frame4(User-Defined)*Table1*Table3(Field Functions)*PushButton1(Custom)")
(cx-gui-do cx-activate-item "Custom Field Function Calculator*Table1*ButtonBox2*PushButton16(/)")
(cx-gui-do cx-activate-item "Custom Field Function Calculator*Table1*ButtonBox2*PushButton8(1)")
(cx-gui-do cx-activate-item "Custom Field Function Calculator*Table1*ButtonBox2*PushButton18(3)")
(cx-gui-do cx-set-list-selections "Custom Field Function Calculator*Table1*Frame3(Select Operand Field Functions from)*Table1*DropDownList1(Field Functions)" '( 4))
(cx-gui-do cx-activate-item "Custom Field Function Calculator*Table1*Frame3(Select Operand Field Functions from)*Table1*DropDownList1(Field Functions)")
(cx-gui-do cx-activate-item "Custom Field Function Calculator*Table1*ButtonBox2*PushButton11(X)")

Error: missing operand
Error Object: #f
(cx-gui-do cx-activate-item "Error*OK")
(cx-gui-do cx-activate-item "Custom Field Function Calculator*PanelButtons*PushButton4(Manage)")
(cx-gui-do cx-activate-item "Field Function Definitions*PanelButtons*PushButton2(Cancel)")
(cx-gui-do cx-activate-item "Custom Field Function Calculator*PanelButtons*PushButton2(Cancel)")
(cx-gui-do cx-activate-item "Ribbon*Frame1*Frame4(User-Defined)*Table1*Table3(User Defined)*PushButton1(Functions)")
(cx-gui-do cx-activate-item "Ribbon*Frame1*Frame4(User-Defined)*Table1*Table3(User Defined)*PushButton1(Functions)")
(cx-gui-do cx-activate-item "Ribbon*Frame1*Frame4(User-Defined)*Table1*Table3(Field Functions)*PushButton1(Custom)")
(cx-gui-do cx-set-text-entry "Custom Field Function Calculator*Table1*TextEntry4(New Function Name)" "re_cell")
(cx-gui-do cx-activate-item "Custom Field Function Calculator*Table1*Frame3(Select Operand Field Functions from)*PushButton2(Select)")
(cx-gui-do cx-set-list-selections "Custom Field Function Calculator*Table1*Frame3(Select Operand Field Functions from)*Table1*DropDownList1(Field Functions)" '( 2))
(cx-gui-do cx-activate-item "Custom Field Function Calculator*Table1*Frame3(Select Operand Field Functions from)*Table1*DropDownList1(Field Functions)")
(cx-gui-do cx-set-list-selections "Custom Field Function Calculator*Table1*Frame3(Select Operand Field Functions from)*Table1*DropDownList2" '( 0))
(cx-gui-do cx-activate-item "Custom Field Function Calculator*Table1*Frame3(Select Operand Field Functions from)*Table1*DropDownList2")
(cx-gui-do cx-activate-item "Custom Field Function Calculator*Table1*Frame3(Select Operand Field Functions from)*PushButton2(Select)")

Error: missing operator
Error Object: #f
(cx-gui-do cx-activate-item "Error*OK")
(cx-gui-do cx-activate-item "Custom Field Function Calculator*Table1*ButtonBox2*PushButton30(DEL)")
(cx-gui-do cx-activate-item "Custom Field Function Calculator*Table1*Frame3(Select Operand Field Functions from)*PushButton2(Select)")
(cx-gui-do cx-activate-item "Custom Field Function Calculator*Table1*ButtonBox2*PushButton11(X)")
(cx-gui-do cx-set-list-selections "Custom Field Function Calculator*Table1*Frame3(Select Operand Field Functions from)*Table1*DropDownList1(Field Functions)" '( 3))
(cx-gui-do cx-activate-item "Custom Field Function Calculator*Table1*Frame3(Select Operand Field Functions from)*Table1*DropDownList1(Field Functions)")
(cx-gui-do cx-set-list-selections "Custom Field Function Calculator*Table1*Frame3(Select Operand Field Functions from)*Table1*DropDownList1(Field Functions)" '( 3))
(cx-gui-do cx-activate-item "Custom Field Function Calculator*Table1*Frame3(Select Operand Field Functions from)*Table1*DropDownList1(Field Functions)")
(cx-gui-do cx-set-list-selections "Custom Field Function Calculator*Table1*Frame3(Select Operand Field Functions from)*Table1*DropDownList1(Field Functions)" '( 6))
(cx-gui-do cx-activate-item "Custom Field Function Calculator*Table1*Frame3(Select Operand Field Functions from)*Table1*DropDownList1(Field Functions)")
(cx-gui-do cx-set-list-selections "Custom Field Function Calculator*Table1*Frame3(Select Operand Field Functions from)*Table1*DropDownList2" '( 6))
(cx-gui-do cx-activate-item "Custom Field Function Calculator*Table1*Frame3(Select Operand Field Functions from)*Table1*DropDownList2")
(cx-gui-do cx-activate-item "Custom Field Function Calculator*Table1*Frame3(Select Operand Field Functions from)*PushButton2(Select)")
(cx-gui-do cx-set-list-selections "Custom Field Function Calculator*Table1*Frame3(Select Operand Field Functions from)*Table1*DropDownList1(Field Functions)" '( 9))
(cx-gui-do cx-activate-item "Custom Field Function Calculator*Table1*Frame3(Select Operand Field Functions from)*Table1*DropDownList1(Field Functions)")
(cx-gui-do cx-set-list-selections "Custom Field Function Calculator*Table1*Frame3(Select Operand Field Functions from)*Table1*DropDownList1(Field Functions)" '( 8))
(cx-gui-do cx-activate-item "Custom Field Function Calculator*Table1*Frame3(Select Operand Field Functions from)*Table1*DropDownList1(Field Functions)")
(cx-gui-do cx-set-list-selections "Custom Field Function Calculator*Table1*Frame3(Select Operand Field Functions from)*Table1*DropDownList1(Field Functions)" '( 9))
(cx-gui-do cx-activate-item "Custom Field Function Calculator*Table1*Frame3(Select Operand Field Functions from)*Table1*DropDownList1(Field Functions)")
(cx-gui-do cx-set-list-selections "Custom Field Function Calculator*Table1*Frame3(Select Operand Field Functions from)*Table1*DropDownList2" '( 6))
(cx-gui-do cx-activate-item "Custom Field Function Calculator*Table1*Frame3(Select Operand Field Functions from)*Table1*DropDownList2")
(cx-gui-do cx-set-list-selections "Custom Field Function Calculator*Table1*Frame3(Select Operand Field Functions from)*Table1*DropDownList2" '( 5))
(cx-gui-do cx-activate-item "Custom Field Function Calculator*Table1*Frame3(Select Operand Field Functions from)*Table1*DropDownList2")
(cx-gui-do cx-set-list-selections "Custom Field Function Calculator*Table1*Frame3(Select Operand Field Functions from)*Table1*DropDownList2" '( 5))
(cx-gui-do cx-activate-item "Custom Field Function Calculator*Table1*Frame3(Select Operand Field Functions from)*Table1*DropDownList2")
(cx-gui-do cx-activate-item "Custom Field Function Calculator*Table1*Frame3(Select Operand Field Functions from)*PushButton2(Select)")

Error: missing operator
Error Object: #f
(cx-gui-do cx-activate-item "Error*OK")
(cx-gui-do cx-activate-item "Custom Field Function Calculator*Table1*ButtonBox2*PushButton11(X)")
(cx-gui-do cx-activate-item "Custom Field Function Calculator*Table1*Frame3(Select Operand Field Functions from)*PushButton2(Select)")
(cx-gui-do cx-activate-item "Custom Field Function Calculator*Table1*ButtonBox2*PushButton16(/)")
(cx-gui-do cx-set-list-selections "Custom Field Function Calculator*Table1*Frame3(Select Operand Field Functions from)*Table1*DropDownList1(Field Functions)" '( 6))
(cx-gui-do cx-activate-item "Custom Field Function Calculator*Table1*Frame3(Select Operand Field Functions from)*Table1*DropDownList1(Field Functions)")
(cx-gui-do cx-set-list-selections "Custom Field Function Calculator*Table1*Frame3(Select Operand Field Functions from)*Table1*DropDownList2" '( 0))
(cx-gui-do cx-activate-item "Custom Field Function Calculator*Table1*Frame3(Select Operand Field Functions from)*Table1*DropDownList2")
(cx-gui-do cx-activate-item "Custom Field Function Calculator*Table1*Frame3(Select Operand Field Functions from)*PushButton2(Select)")
(cx-gui-do cx-set-list-selections "Custom Field Function Calculator*Table1*Frame3(Select Operand Field Functions from)*Table1*DropDownList1(Field Functions)" '( 5))
(cx-gui-do cx-activate-item "Custom Field Function Calculator*Table1*Frame3(Select Operand Field Functions from)*Table1*DropDownList1(Field Functions)")
(cx-gui-do cx-set-text-entry "Custom Field Function Calculator*Table1*TextEntry4(New Function Name)" "re_cell")
(cx-gui-do cx-activate-item "Custom Field Function Calculator*PanelButtons*PushButton1(OK)")
(cx-gui-do cx-activate-item "Custom Field Function Calculator*PanelButtons*PushButton2(Cancel)")
(cx-gui-do cx-activate-item "Report Definitions*Table1*ButtonBox3*PushButton1(New)")
(cx-gui-do cx-activate-item "MenuBar*Surface ReportSubMenu*Area-Weighted Average...")
(cx-gui-do cx-set-text-entry "Surface Report Definition*Table1*Table1*TextEntry1(Name)" "re_cell")
(cx-gui-do cx-activate-item "Surface Report Definition*Table1*Table1*TextEntry1(Name)")
(cx-gui-do cx-set-list-selections "Surface Report Definition*Table1*Table2*DropDownList3(Field Variable)" '( 0))
(cx-gui-do cx-activate-item "Surface Report Definition*Table1*Table2*DropDownList3(Field Variable)")
(cx-gui-do cx-set-list-selections "Surface Report Definition*Table1*Table2*Table6*List1(Surfaces)" '( 7))
(cx-gui-do cx-activate-item "Surface Report Definition*Table1*Table2*Table6*List1(Surfaces)")
(cx-gui-do cx-activate-item "Surface Report Definition*PanelButtons*PushButton4(Compute)")

           Area-Weighted Average                    
-------------------------------- -------------------
                           walls           23202.783
(cx-gui-do cx-activate-item "Surface Report Definition*PanelButtons*PushButton1(OK)")
(cx-gui-do cx-activate-item "Report Definitions*PanelButtons*PushButton1(Close)")
(cx-gui-do cx-set-list-tree-selections "NavigationPane*Frame2*Table1*List_Tree2" (list "Results|Plots|XY Plot|wall-treatment_variables"))
(cx-gui-do cx-set-list-tree-selections "NavigationPane*Frame2*Table1*List_Tree2" (list "Results|Plots|XY Plot|wall-treatment_variables"))
(cx-gui-do cx-activate-item "NavigationPane*Frame2*Table1*List_Tree2")
(cx-gui-do cx-set-list-tree-selections "NavigationPane*Frame2*Table1*List_Tree2" (list "Results|Plots|XY Plot|wall-treatment_variables"))
(cx-gui-do cx-set-list-selections "Solution XY Plot*Table1*Table3*Frame3*List1(Surfaces)" '())
(cx-gui-do cx-activate-item "Solution XY Plot*Table1*Table3*Frame3*List1(Surfaces)")
(cx-gui-do cx-set-list-selections "Solution XY Plot*Table1*Table3*Frame3*List1(Surfaces)" '( 7))
(cx-gui-do cx-activate-item "Solution XY Plot*Table1*Table3*Frame3*List1(Surfaces)")
(cx-gui-do cx-set-list-selections "Solution XY Plot*Table1*Table3*Table2*DropDownList1(X Axis Function)" '( 0))
(cx-gui-do cx-activate-item "Solution XY Plot*Table1*Table3*Table2*DropDownList1(X Axis Function)")
(cx-gui-do cx-activate-item "Solution XY Plot*PanelButtons*PushButton1(OK)")
(cx-gui-do cx-set-list-tree-selections "NavigationPane*Frame2*Table1*List_Tree2" (list "Results|Graphics|Contours|mach"))
(cx-gui-do cx-set-list-tree-selections "NavigationPane*Frame2*Table1*List_Tree2" (list "Results|Graphics|Contours|mach"))
(cx-gui-do cx-activate-item "NavigationPane*Frame2*Table1*List_Tree2")
(cx-gui-do cx-set-list-tree-selections "NavigationPane*Frame2*Table1*List_Tree2" (list "Results|Graphics|Contours|mach"))
(cx-gui-do cx-activate-item "Contours*PanelButtons*PushButton1(OK)")
(cx-gui-do cx-set-list-tree-selections "NavigationPane*Frame2*Table1*List_Tree2" (list "Results|Graphics|Contours"))
(cx-gui-do cx-set-list-tree-selections "NavigationPane*Frame2*Table1*List_Tree2" (list "Results|Graphics|Contours"))
(cx-gui-do cx-activate-item "NavigationPane*Frame2*Table1*List_Tree2")
(cx-gui-do cx-set-list-tree-selections "NavigationPane*Frame2*Table1*List_Tree2" (list "Results|Graphics|Contours"))
(cx-gui-do cx-set-list-selections "Contours*Table1*Frame3*Table1*DropDownList1(Contours of)" '( 0))
(cx-gui-do cx-activate-item "Contours*Table1*Frame3*Table1*DropDownList1(Contours of)")
(cx-gui-do cx-set-list-selections "Contours*Table1*Frame3*Frame2*List2(Surfaces)" '( 4))
(cx-gui-do cx-activate-item "Contours*Table1*Frame3*Frame2*List2(Surfaces)")
(cx-gui-do cx-activate-item "Contours*PanelButtons*PushButton1(OK)")
(cx-gui-do cx-activate-item "Contours*PanelButtons*PushButton2(Cancel)")
(cx-gui-do cx-activate-item "Solution XY Plot*PanelButtons*PushButton2(Cancel)")
(cx-gui-do cx-activate-item "MenuBar*WriteSubMenu*Case & Data...")
(cx-gui-do cx-set-file-dialog-entries "Select File" '( "C:/Users/cvest/Claudio/Oxford/3rd Year/B3/CubeSat_project/Claudio/Aerothermal/CFD/2d Sim/Final For Project Report/Final.cas.h5") "CFF Case/Data Files (*.cas.h5 *.dat.h5 )")

Writing to ClouDsBlade14:"C:/Users/cvest/Claudio/Oxford/3rd Year/B3/CubeSat_project/Claudio/Aerothermal/CFD/2d Sim/Final For Project Report/Final.cas.h5" in NODE0 mode and compression level 1 ...
Grouping cells for Laplace smoothing ...
       49716 cells,     2 zones ...
       83623 faces,     5 zones ...
       33432 nodes,     1 zone  ...
  Done.
Done.

Writing to ClouDsBlade14:"C:/Users/cvest/Claudio/Oxford/3rd Year/B3/CubeSat_project/Claudio/Aerothermal/CFD/2d Sim/Final For Project Report/Final.dat.h5" in NODE0 mode and compression level 1 ...
  Writing results.
Done.
(cx-gui-do cx-set-list-tree-selections "NavigationPane*Frame2*Table1*List_Tree2" (list "Results|Graphics|Contours|contour-1"))
(cx-gui-do cx-set-list-tree-selections "NavigationPane*Frame2*Table1*List_Tree2" (list "Results|Graphics|Contours|contour-1"))
(cx-gui-do cx-activate-item "NavigationPane*Frame2*Table1*List_Tree2")
(cx-gui-do cx-set-list-tree-selections "NavigationPane*Frame2*Table1*List_Tree2" (list "Results|Graphics|Contours|contour-1"))
(cx-gui-do cx-set-list-selections "Contours*Table1*Frame3*Table1*DropDownList1(Contours of)" '( 6))
(cx-gui-do cx-activate-item "Contours*Table1*Frame3*Table1*DropDownList1(Contours of)")
(cx-gui-do cx-activate-item "Contours*PanelButtons*PushButton1(OK)")
(cx-gui-do cx-activate-item "Contours*PanelButtons*PushButton2(Cancel)")
/exit y
(cx-gui-do cx-activate-item "Question*OK")

Posting ANSYS Product Improvement Program performance data 
Done.
Auto-Transcript Stop Time:  21:52:13, 08 Apr 2025 Malay Peninsula Standard Time 
Total Transcript Time: 1 Day 4 Hour 18 Minute 6 Second.
